@<TRIPOS>MOLECULE
IMPHY000359
 46 50 0 0 0
SMALL
GASTEIGER

@<TRIPOS>ATOM
      1 O           4.6527   -3.7408    0.0000 O.3     1  UNL1       -0.4523
      2 O           3.2074   -4.5902    0.0000 O.3     1  UNL1       -0.4526
      3 O           3.8105    4.1863    0.0000 O.3     1  UNL1       -0.4914
      4 O           2.0072    3.1265    0.0000 O.3     1  UNL1       -0.5033
      5 N           4.7297   -0.5104    0.0000 N.3     1  UNL1       -0.2903
      6 C           3.8636   -0.0104    0.0000 C.3     1  UNL1        0.0429
      7 C           2.9976   -0.5104    0.0000 C.3     1  UNL1        0.0015
      8 C           4.7297   -1.5104    0.0000 C.3     1  UNL1        0.0285
      9 C           3.8476    1.0311    0.0000 C.ar    1  UNL1       -0.0228
     10 C           5.6397   -0.0036    0.0000 C.3     1  UNL1        0.0038
     11 C           2.9976   -1.5104    0.0000 C.ar    1  UNL1       -0.0346
     12 C           3.8636   -2.0104    0.0000 C.ar    1  UNL1        0.0155
     13 C           5.6477    1.0380    0.0000 C.3     1  UNL1       -0.0144
     14 C           4.7456    1.5588    0.0000 C.ar    1  UNL1       -0.0378
     15 C           2.1316   -0.0104    0.0000 C.3     1  UNL1       -0.0566
     16 C           3.8797   -3.0519    0.0000 C.ar    1  UNL1        0.1709
     17 C           2.0876   -2.0173    0.0000 C.ar    1  UNL1       -0.0543
     18 C           2.8956    1.5517    0.0000 C.ar    1  UNL1       -0.0116
     19 C           4.7540    2.6438    0.0000 C.ar    1  UNL1       -0.0128
     20 C           2.9816   -3.5797    0.0000 C.ar    1  UNL1        0.1666
     21 C           2.0796   -3.0589    0.0000 C.ar    1  UNL1       -0.0159
     22 C           2.8789    2.6366    0.0000 C.ar    1  UNL1        0.1588
     23 C           3.8143    3.1863    0.0000 C.ar    1  UNL1        0.1615
     24 C           4.2380   -4.6896    0.0000 C.3     1  UNL1        0.2332
     25 C           4.6746    4.6896    0.0000 C.3     1  UNL1        0.0790
     26 H           3.1243    0.4089    0.0000 H       1  UNL1        0.0518
     27 H           3.5345   -0.8204    0.0000 H       1  UNL1        0.0365
     28 H           4.9417   -2.0930    0.0000 H       1  UNL1        0.0477
     29 H           5.3402   -1.4028    0.0000 H       1  UNL1        0.0477
     30 H           5.8442   -0.5889    0.0000 H       1  UNL1        0.0430
     31 H           6.2513    0.0978    0.0000 H       1  UNL1        0.0430
     32 H           6.2577    0.9272    0.0000 H       1  UNL1        0.0326
     33 H           5.8612    1.6201    0.0000 H       1  UNL1        0.0326
     34 H           2.4416    0.5265    0.0000 H       1  UNL1        0.0236
     35 H           1.5946    0.2996    0.0000 H       1  UNL1        0.0236
     36 H           1.8216   -0.5473    0.0000 H       1  UNL1        0.0236
     37 H           1.5543   -1.7011    0.0000 H       1  UNL1        0.0622
     38 H           2.3648    1.2314    0.0000 H       1  UNL1        0.0658
     39 H           5.2921    2.9517    0.0000 H       1  UNL1        0.0658
     40 H           1.5414   -3.3668    0.0000 H       1  UNL1        0.0655
     41 H           4.1140   -5.2971    0.0000 H       1  UNL1        0.1166
     42 H           4.8291   -4.8768    0.0000 H       1  UNL1        0.1166
     43 H           2.0000    3.7465    0.0000 H       1  UNL1        0.2923
     44 H           4.9866    4.1539    0.0000 H       1  UNL1        0.0660
     45 H           5.2103    5.0017    0.0000 H       1  UNL1        0.0660
     46 H           4.3625    5.2254    0.0000 H       1  UNL1        0.0660
@<TRIPOS>BOND
     1     1    16    1
     2     1    24    1
     3     2    20    1
     4     2    24    1
     5     3    23    1
     6     3    25    1
     7     4    22    1
     8     4    43    1
     9     5     6    1
    10     5     8    1
    11     5    10    1
    12     6     7    1
    13     6     9    1
    14     6    26    1
    15     7    11    1
    16     7    15    1
    17     7    27    1
    18     8    12    1
    19     8    28    1
    20     8    29    1
    21     9    14   ar
    22     9    18   ar
    23    10    13    1
    24    10    30    1
    25    10    31    1
    26    11    12   ar
    27    11    17   ar
    28    12    16   ar
    29    13    14    1
    30    13    32    1
    31    13    33    1
    32    14    19   ar
    33    15    34    1
    34    15    35    1
    35    15    36    1
    36    16    20   ar
    37    17    21   ar
    38    17    37    1
    39    18    22   ar
    40    18    38    1
    41    19    23   ar
    42    19    39    1
    43    20    21   ar
    44    21    40    1
    45    22    23   ar
    46    24    41    1
    47    24    42    1
    48    25    44    1
    49    25    45    1
    50    25    46    1
