@<TRIPOS>MOLECULE
IMPHY015719
 36 36 0 0 0
SMALL
GASTEIGER

@<TRIPOS>ATOM
      1 O           3.7320   -1.0000    0.0000 O.3     1  UNL1       -0.4612
      2 O           2.0000   -1.0000    0.0000 O.2     1  UNL1       -0.2450
      3 C           5.4641    2.0000    0.0000 C.3     1  UNL1       -0.0530
      4 C           4.5981    1.5000    0.0000 C.3     1  UNL1       -0.0500
      5 C           5.4641    3.0000    0.0000 C.3     1  UNL1       -0.0533
      6 C           4.5981    0.5000    0.0000 C.3     1  UNL1       -0.0185
      7 C           6.3301    3.5000    0.0000 C.3     1  UNL1       -0.0559
      8 C           3.7320    0.0000    0.0000 C.3     1  UNL1        0.0928
      9 C           6.3301    4.5000    0.0000 C.3     1  UNL1       -0.0653
     10 C           2.8660   -1.5000    0.0000 C.2     1  UNL1        0.3392
     11 C           2.8660   -2.5000    0.0000 C.ar    1  UNL1        0.0590
     12 C           2.0000   -3.0000    0.0000 C.ar    1  UNL1       -0.0478
     13 C           3.7320   -3.0000    0.0000 C.ar    1  UNL1       -0.0478
     14 C           2.0000   -4.0000    0.0000 C.ar    1  UNL1       -0.0610
     15 C           3.7320   -4.0000    0.0000 C.ar    1  UNL1       -0.0610
     16 C           2.8660   -4.5000    0.0000 C.ar    1  UNL1       -0.0617
     17 H           5.6762    1.4174    0.0000 H       1  UNL1        0.0265
     18 H           6.0747    2.1077    0.0000 H       1  UNL1        0.0265
     19 H           4.3860    2.0826    0.0000 H       1  UNL1        0.0266
     20 H           3.9875    1.3923    0.0000 H       1  UNL1        0.0266
     21 H           5.2520    3.5826    0.0000 H       1  UNL1        0.0265
     22 H           4.8535    2.8923    0.0000 H       1  UNL1        0.0265
     23 H           4.8101   -0.0826    0.0000 H       1  UNL1        0.0298
     24 H           5.2087    0.6077    0.0000 H       1  UNL1        0.0298
     25 H           6.5422    2.9174    0.0000 H       1  UNL1        0.0263
     26 H           6.9407    3.6077    0.0000 H       1  UNL1        0.0263
     27 H           3.5200    0.5826    0.0000 H       1  UNL1        0.0697
     28 H           3.1215   -0.1077    0.0000 H       1  UNL1        0.0697
     29 H           6.9501    4.5000    0.0000 H       1  UNL1        0.0230
     30 H           6.3301    5.1200    0.0000 H       1  UNL1        0.0230
     31 H           5.7101    4.5000    0.0000 H       1  UNL1        0.0230
     32 H           1.4631   -2.6900    0.0000 H       1  UNL1        0.0626
     33 H           4.2690   -2.6900    0.0000 H       1  UNL1        0.0626
     34 H           1.4631   -4.3100    0.0000 H       1  UNL1        0.0618
     35 H           4.2690   -4.3100    0.0000 H       1  UNL1        0.0618
     36 H           2.8660   -5.1200    0.0000 H       1  UNL1        0.0618
@<TRIPOS>BOND
     1     1     8    1
     2     1    10    1
     3     2    10    2
     4     3     4    1
     5     3     5    1
     6     3    17    1
     7     3    18    1
     8     4     6    1
     9     4    19    1
    10     4    20    1
    11     5     7    1
    12     5    21    1
    13     5    22    1
    14     6     8    1
    15     6    23    1
    16     6    24    1
    17     7     9    1
    18     7    25    1
    19     7    26    1
    20     8    27    1
    21     8    28    1
    22     9    29    1
    23     9    30    1
    24     9    31    1
    25    10    11    1
    26    11    12   ar
    27    11    13   ar
    28    12    14   ar
    29    12    32    1
    30    13    15   ar
    31    13    33    1
    32    14    16   ar
    33    14    34    1
    34    15    16   ar
    35    15    35    1
    36    16    36    1
