@<TRIPOS>MOLECULE
IMPHY017206
 36 37 0 0 0
SMALL
GASTEIGER

@<TRIPOS>ATOM
      1 O           2.8660    1.0000    0.0000 O.2     1  UNL1       -0.2974
      2 C           3.7320   -0.5000    0.0000 C.3     1  UNL1        0.0098
      3 C           4.5981    1.0000    0.0000 C.3     1  UNL1        0.0098
      4 C           2.8660   -1.0000    0.0000 C.3     1  UNL1       -0.0210
      5 C           4.5981    2.0000    0.0000 C.3     1  UNL1       -0.0210
      6 C           3.7320    0.5000    0.0000 C.2     1  UNL1        0.1340
      7 C           2.8660   -2.0000    0.0000 C.ar    1  UNL1       -0.0470
      8 C           5.4641    2.5000    0.0000 C.ar    1  UNL1       -0.0470
      9 C           3.7320   -2.5000    0.0000 C.ar    1  UNL1       -0.0586
     10 C           5.4641    3.5000    0.0000 C.ar    1  UNL1       -0.0586
     11 C           2.0000   -2.5000    0.0000 C.ar    1  UNL1       -0.0586
     12 C           6.3301    2.0000    0.0000 C.ar    1  UNL1       -0.0586
     13 C           3.7320   -3.5000    0.0000 C.ar    1  UNL1       -0.0615
     14 C           6.3301    4.0000    0.0000 C.ar    1  UNL1       -0.0615
     15 C           2.0000   -3.5000    0.0000 C.ar    1  UNL1       -0.0615
     16 C           7.1962    2.5000    0.0000 C.ar    1  UNL1       -0.0615
     17 C           2.8660   -4.0000    0.0000 C.ar    1  UNL1       -0.0617
     18 C           7.1962    3.5000    0.0000 C.ar    1  UNL1       -0.0617
     19 H           3.9441   -1.0826    0.0000 H       1  UNL1        0.0345
     20 H           4.3426   -0.3923    0.0000 H       1  UNL1        0.0345
     21 H           4.8101    0.4174    0.0000 H       1  UNL1        0.0345
     22 H           5.2087    1.1077    0.0000 H       1  UNL1        0.0345
     23 H           2.6540   -0.4174    0.0000 H       1  UNL1        0.0317
     24 H           2.2554   -1.1077    0.0000 H       1  UNL1        0.0317
     25 H           4.3860    2.5826    0.0000 H       1  UNL1        0.0317
     26 H           3.9875    1.8923    0.0000 H       1  UNL1        0.0317
     27 H           4.2690   -2.1900    0.0000 H       1  UNL1        0.0620
     28 H           4.9272    3.8100    0.0000 H       1  UNL1        0.0620
     29 H           1.4631   -2.1900    0.0000 H       1  UNL1        0.0620
     30 H           6.3301    1.3800    0.0000 H       1  UNL1        0.0620
     31 H           4.2690   -3.8100    0.0000 H       1  UNL1        0.0618
     32 H           6.3301    4.6200    0.0000 H       1  UNL1        0.0618
     33 H           1.4631   -3.8100    0.0000 H       1  UNL1        0.0618
     34 H           7.7331    2.1900    0.0000 H       1  UNL1        0.0618
     35 H           2.8660   -4.6200    0.0000 H       1  UNL1        0.0618
     36 H           7.7331    3.8100    0.0000 H       1  UNL1        0.0618
@<TRIPOS>BOND
     1     1     6    2
     2     2     4    1
     3     2     6    1
     4     2    19    1
     5     2    20    1
     6     3     5    1
     7     3     6    1
     8     3    21    1
     9     3    22    1
    10     4     7    1
    11     4    23    1
    12     4    24    1
    13     5     8    1
    14     5    25    1
    15     5    26    1
    16     7     9   ar
    17     7    11   ar
    18     8    10   ar
    19     8    12   ar
    20     9    13   ar
    21     9    27    1
    22    10    14   ar
    23    10    28    1
    24    11    15   ar
    25    11    29    1
    26    12    16   ar
    27    12    30    1
    28    13    17   ar
    29    13    31    1
    30    14    18   ar
    31    14    32    1
    32    15    17   ar
    33    15    33    1
    34    16    18   ar
    35    16    34    1
    36    17    35    1
    37    18    36    1
