@<TRIPOS>MOLECULE
IMPHY000018
 37 40 0 0 0
SMALL
GASTEIGER

@<TRIPOS>ATOM
      1 O           2.9755   -1.7845    0.0000 O.3     1  UNL1       -0.3578
      2 O           3.2163   -2.8977    0.0000 O.3     1  UNL1       -0.3848
      3 O           2.9972    1.9162    0.0000 O.3     1  UNL1       -0.4535
      4 O           3.8019    3.4998    0.0000 O.2     1  UNL1       -0.2453
      5 C           3.8019   -1.2207    0.0000 C.3     1  UNL1        0.1348
      6 C           2.9010   -0.7868    0.0000 C.3     1  UNL1        0.1035
      7 C           4.7029   -0.7868    0.0000 C.3     1  UNL1        0.0183
      8 C           3.9379   -2.2054    0.0000 C.3     1  UNL1        0.1058
      9 C           2.6785    0.1881    0.0000 C.3     1  UNL1        0.0201
     10 C           4.9254    0.1881    0.0000 C.3     1  UNL1       -0.0182
     11 C           5.3880   -1.5071    0.0000 C.2     1  UNL1       -0.0677
     12 C           3.3019    0.9700    0.0000 C.3     1  UNL1        0.1279
     13 C           2.0000   -0.3529    0.0000 C.3     1  UNL1       -0.0328
     14 C           4.9162   -2.3821    0.0000 C.2     1  UNL1       -0.0537
     15 C           4.3019    0.9700    0.0000 C.2     1  UNL1       -0.0192
     16 C           6.3792   -1.3746    0.0000 C.3     1  UNL1       -0.0433
     17 C           4.6067    1.9162    0.0000 C.2     1  UNL1        0.0362
     18 C           3.8019    2.4998    0.0000 C.2     1  UNL1        0.3355
     19 C           5.5572    2.2269    0.0000 C.3     1  UNL1       -0.0329
     20 H           5.5226   -0.5617    0.0000 H       1  UNL1        0.0378
     21 H           3.3523   -2.0019    0.0000 H       1  UNL1        0.0668
     22 H           2.2919    0.6729    0.0000 H       1  UNL1        0.0333
     23 H           2.1198   -0.0809    0.0000 H       1  UNL1        0.0333
     24 H           5.4840   -0.0809    0.0000 H       1  UNL1        0.0318
     25 H           5.3120    0.6729    0.0000 H       1  UNL1        0.0318
     26 H           2.4658    1.1228    0.0000 H       1  UNL1        0.0783
     27 H           2.2690    0.2057    0.0000 H       1  UNL1        0.0258
     28 H           1.4414   -0.0839    0.0000 H       1  UNL1        0.0258
     29 H           1.7310   -0.9115    0.0000 H       1  UNL1        0.0258
     30 H           5.1852   -2.9407    0.0000 H       1  UNL1        0.0598
     31 H           6.4614   -1.9891    0.0000 H       1  UNL1        0.0274
     32 H           6.9937   -1.2924    0.0000 H       1  UNL1        0.0274
     33 H           6.2970   -0.7600    0.0000 H       1  UNL1        0.0274
     34 H           3.3644   -3.4998    0.0000 H       1  UNL1        0.2103
     35 H           5.7498    1.6375    0.0000 H       1  UNL1        0.0280
     36 H           6.1465    2.4195    0.0000 H       1  UNL1        0.0280
     37 H           5.3646    2.8162    0.0000 H       1  UNL1        0.0280
@<TRIPOS>BOND
     1     5     1    1
     2     1     6    1
     3     8     2    1
     4     2    34    1
     5     3    12    1
     6     3    18    1
     7     4    18    2
     8     5     6    1
     9     5     7    1
    10     5     8    1
    11     6     9    1
    12     6    13    1
    13     7    10    1
    14     7    11    1
    15     7    20    1
    16     8    14    1
    17     8    21    1
    18     9    12    1
    19     9    22    1
    20     9    23    1
    21    10    15    1
    22    10    24    1
    23    10    25    1
    24    11    14    2
    25    11    16    1
    26    12    15    1
    27    12    26    1
    28    13    27    1
    29    13    28    1
    30    13    29    1
    31    14    30    1
    32    15    17    2
    33    16    31    1
    34    16    32    1
    35    16    33    1
    36    17    18    1
    37    17    19    1
    38    19    35    1
    39    19    36    1
    40    19    37    1
