@<TRIPOS>MOLECULE
IMPHY009242
 83 90 0 0 0
SMALL
GASTEIGER

@<TRIPOS>ATOM
      1 O           6.0682    2.9766    0.0000 O.3     1  UNL1       -0.4810
      2 O           7.2007   -1.3918    0.0000 O.3     1  UNL1       -0.4797
      3 O           7.9343    1.4766    0.0000 O.3     1  UNL1       -0.3868
      4 O           9.8212   -1.2345    0.0000 O.3     1  UNL1       -0.4534
      5 O           5.8707    1.8480    0.0000 O.3     1  UNL1       -0.5062
      6 O           8.9317    0.4297    0.0000 O.3     1  UNL1       -0.5063
      7 O           4.3198   -0.0579    0.0000 O.3     1  UNL1       -0.5062
      8 O           9.5516    2.6801    0.0000 O.3     1  UNL1       -0.4480
      9 O           2.5381    3.0008    0.0000 O.3     1  UNL1       -0.5065
     10 O          10.1009    3.8943    0.0000 O.3     1  UNL1       -0.5008
     11 O           7.0390    5.3728    0.0000 O.3     1  UNL1       -0.5032
     12 O           9.0005    5.5253    0.0000 O.3     1  UNL1       -0.5008
     13 O          11.2962   -1.0417    0.0000 O.2     1  UNL1       -0.2449
     14 O           9.3763   -4.9041    0.0000 O.3     1  UNL1       -0.5032
     15 O           5.9449   -4.4292    0.0000 O.3     1  UNL1       -0.5032
     16 O           7.5235   -5.6572    0.0000 O.3     1  UNL1       -0.5009
     17 O          11.5042    3.2911    0.0000 O.3     1  UNL1       -0.5009
     18 O          12.9220    1.8685    0.0000 O.3     1  UNL1       -0.5032
     19 C           6.0682    0.9766    0.0000 C.3     1  UNL1        0.0528
     20 C           6.9343    1.4766    0.0000 C.3     1  UNL1        0.1075
     21 C           6.1154    0.0554    0.0000 C.ar    1  UNL1        0.0463
     22 C           6.9343    2.4766    0.0000 C.3     1  UNL1        0.1553
     23 C           5.2022    1.4766    0.0000 C.ar    1  UNL1        0.0461
     24 C           6.5133   -0.7767    0.0000 C.ar    1  UNL1        0.1356
     25 C           8.9926   -1.6398    0.0000 C.3     1  UNL1        0.1483
     26 C           7.4713   -0.5013    0.0000 C.ar    1  UNL1        0.0398
     27 C           8.0718   -1.6950    0.0000 C.3     1  UNL1        0.1624
     28 C           8.4127   -0.8290    0.0000 C.3     1  UNL1        0.0204
     29 C           5.2022    2.4766    0.0000 C.ar    1  UNL1        0.1323
     30 C           6.3940    0.9958    0.0000 C.ar    1  UNL1        0.1277
     31 C           7.7556    2.8965    0.0000 C.ar    1  UNL1        0.0448
     32 C           7.9339    0.3635    0.0000 C.ar    1  UNL1        0.1271
     33 C           4.3083    0.9420    0.0000 C.ar    1  UNL1        0.1276
     34 C           7.9348   -2.6856    0.0000 C.ar    1  UNL1        0.0034
     35 C           7.3611    1.1597    0.0000 C.ar    1  UNL1        0.0221
     36 C           4.3083    3.0113    0.0000 C.ar    1  UNL1        0.0221
     37 C           8.6753    2.9680    0.0000 C.ar    1  UNL1        0.1804
     38 C           3.4022    1.4558    0.0000 C.ar    1  UNL1        0.0218
     39 C           7.2000    3.6803    0.0000 C.ar    1  UNL1       -0.0060
     40 C           3.4022    2.4975    0.0000 C.ar    1  UNL1        0.1238
     41 C           7.0084   -3.0621    0.0000 C.ar    1  UNL1       -0.0095
     42 C           8.7240   -3.2996    0.0000 C.ar    1  UNL1       -0.0095
     43 C           9.1030    3.8283    0.0000 C.ar    1  UNL1        0.2056
     44 C           7.6078    4.5503    0.0000 C.ar    1  UNL1        0.1626
     45 C          10.4302   -0.5417    0.0000 C.2     1  UNL1        0.3398
     46 C           8.5657    4.6248    0.0000 C.ar    1  UNL1        0.2044
     47 C           8.5870   -4.2901    0.0000 C.ar    1  UNL1        0.1623
     48 C           6.8713   -4.0527    0.0000 C.ar    1  UNL1        0.1623
     49 C          10.7257    0.3321    0.0000 C.ar    1  UNL1        0.0662
     50 C          10.2498    2.0773    0.0000 C.ar    1  UNL1        0.1743
     51 C           7.6606   -4.6667    0.0000 C.ar    1  UNL1        0.2006
     52 C          10.6623    1.2523    0.0000 C.ar    1  UNL1       -0.0015
     53 C          11.7038    0.6183    0.0000 C.ar    1  UNL1       -0.0023
     54 C          11.2378    2.3273    0.0000 C.ar    1  UNL1        0.2015
     55 C          11.9572    1.6054    0.0000 C.ar    1  UNL1        0.1628
     56 H           5.5394    0.6530    0.0000 H       1  UNL1        0.0429
     57 H           7.0948    0.8778    0.0000 H       1  UNL1        0.0643
     58 H           6.9501    3.0964    0.0000 H       1  UNL1        0.0812
     59 H           9.1504   -2.2394    0.0000 H       1  UNL1        0.0778
     60 H           8.4929   -2.1501    0.0000 H       1  UNL1        0.0822
     61 H           9.0046   -0.6444    0.0000 H       1  UNL1        0.0353
     62 H           8.0412   -1.3254    0.0000 H       1  UNL1        0.0353
     63 H           7.5966    1.7332    0.0000 H       1  UNL1        0.0691
     64 H           8.2443    2.0136    0.0000 H       1  UNL1        0.2100
     65 H           4.3154    3.6313    0.0000 H       1  UNL1        0.0691
     66 H           2.8665    1.1438    0.0000 H       1  UNL1        0.0691
     67 H           6.5825    3.6251    0.0000 H       1  UNL1        0.0660
     68 H           6.5190   -2.6814    0.0000 H       1  UNL1        0.0659
     69 H           9.2984   -3.0661    0.0000 H       1  UNL1        0.0659
     70 H           6.2562    2.3336    0.0000 H       1  UNL1        0.2921
     71 H           9.2055    0.9860    0.0000 H       1  UNL1        0.2921
     72 H           3.7865   -0.3741    0.0000 H       1  UNL1        0.2921
     73 H          11.2605    1.4154    0.0000 H       1  UNL1        0.0664
     74 H           2.0000    2.6929    0.0000 H       1  UNL1        0.2921
     75 H          12.1495    0.1872    0.0000 H       1  UNL1        0.0663
     76 H          10.3748    4.4505    0.0000 H       1  UNL1        0.2924
     77 H           6.4210    5.3224    0.0000 H       1  UNL1        0.2923
     78 H           8.6518    6.0379    0.0000 H       1  UNL1        0.2924
     79 H           9.9506   -4.6707    0.0000 H       1  UNL1        0.2923
     80 H           5.8599   -5.0434    0.0000 H       1  UNL1        0.2923
     81 H           8.0128   -6.0379    0.0000 H       1  UNL1        0.2924
     82 H          12.1043    3.4469    0.0000 H       1  UNL1        0.2924
     83 H          13.3623    1.4320    0.0000 H       1  UNL1        0.2923
@<TRIPOS>BOND
     1     1    22    1
     2     1    29    1
     3     2    24    1
     4     2    27    1
     5     3    20    1
     6     3    64    1
     7     4    25    1
     8     4    45    1
     9     5    30    1
    10     5    70    1
    11     6    32    1
    12     6    71    1
    13     7    33    1
    14     7    72    1
    15     8    37    1
    16     8    50    1
    17     9    40    1
    18     9    74    1
    19    10    43    1
    20    10    76    1
    21    11    44    1
    22    11    77    1
    23    12    46    1
    24    12    78    1
    25    13    45    2
    26    14    47    1
    27    14    79    1
    28    15    48    1
    29    15    80    1
    30    16    51    1
    31    16    81    1
    32    17    54    1
    33    17    82    1
    34    18    55    1
    35    18    83    1
    36    19    20    1
    37    19    21    1
    38    19    23    1
    39    19    56    1
    40    20    22    1
    41    20    57    1
    42    21    24   ar
    43    21    30   ar
    44    22    31    1
    45    22    58    1
    46    23    29   ar
    47    23    33   ar
    48    24    26   ar
    49    25    27    1
    50    25    28    1
    51    25    59    1
    52    26    28    1
    53    26    32   ar
    54    27    34    1
    55    27    60    1
    56    28    61    1
    57    28    62    1
    58    29    36   ar
    59    30    35   ar
    60    31    37   ar
    61    31    39   ar
    62    32    35   ar
    63    33    38   ar
    64    34    41   ar
    65    34    42   ar
    66    35    63    1
    67    36    40   ar
    68    36    65    1
    69    37    43   ar
    70    38    40   ar
    71    38    66    1
    72    39    44   ar
    73    39    67    1
    74    41    48   ar
    75    41    68    1
    76    42    47   ar
    77    42    69    1
    78    43    46   ar
    79    44    46   ar
    80    45    49    1
    81    47    51   ar
    82    48    51   ar
    83    49    52   ar
    84    49    53   ar
    85    50    52   ar
    86    50    54   ar
    87    52    73    1
    88    53    55   ar
    89    53    75    1
    90    54    55   ar
