@<TRIPOS>MOLECULE
IMPHY014489
 103 102 0 0 0
SMALL
GASTEIGER

@<TRIPOS>ATOM
      1 O          23.6506   -0.5950    0.0000 O.3     1  UNL1       -0.3917
      2 O          25.3827   -0.5950    0.0000 O.3     1  UNL1       -0.3917
      3 C          23.6506    0.4050    0.0000 C.3     1  UNL1        0.0576
      4 C          22.7846    0.9050    0.0000 C.3     1  UNL1       -0.0268
      5 C          21.9186    0.4050    0.0000 C.3     1  UNL1       -0.0507
      6 C          21.0526    0.9050    0.0000 C.3     1  UNL1       -0.0530
      7 C          20.1865    0.4050    0.0000 C.3     1  UNL1       -0.0531
      8 C          19.3205    0.9050    0.0000 C.3     1  UNL1       -0.0531
      9 C          18.4545    0.4050    0.0000 C.3     1  UNL1       -0.0531
     10 C          17.5885    0.9050    0.0000 C.3     1  UNL1       -0.0531
     11 C          24.5167    0.9050    0.0000 C.3     1  UNL1       -0.0007
     12 C          16.7224    0.4050    0.0000 C.3     1  UNL1       -0.0531
     13 C          15.8564    0.9050    0.0000 C.3     1  UNL1       -0.0531
     14 C          14.9904    0.4050    0.0000 C.3     1  UNL1       -0.0531
     15 C          14.1244    0.9050    0.0000 C.3     1  UNL1       -0.0531
     16 C          13.2583    0.4050    0.0000 C.3     1  UNL1       -0.0531
     17 C          12.3923    0.9050    0.0000 C.3     1  UNL1       -0.0531
     18 C          25.3827    0.4050    0.0000 C.3     1  UNL1        0.0576
     19 C          11.5263    0.4050    0.0000 C.3     1  UNL1       -0.0531
     20 C          10.6603    0.9050    0.0000 C.3     1  UNL1       -0.0531
     21 C           9.7942    0.4050    0.0000 C.3     1  UNL1       -0.0531
     22 C           8.9282    0.9050    0.0000 C.3     1  UNL1       -0.0531
     23 C          26.2487    0.9050    0.0000 C.3     1  UNL1       -0.0268
     24 C           8.0622    0.4050    0.0000 C.3     1  UNL1       -0.0531
     25 C           7.1962    0.9050    0.0000 C.3     1  UNL1       -0.0531
     26 C          27.1147    0.4050    0.0000 C.3     1  UNL1       -0.0507
     27 C           6.3301    0.4050    0.0000 C.3     1  UNL1       -0.0531
     28 C           5.4641    0.9050    0.0000 C.3     1  UNL1       -0.0531
     29 C          27.9808    0.9050    0.0000 C.3     1  UNL1       -0.0532
     30 C           4.5981    0.4050    0.0000 C.3     1  UNL1       -0.0531
     31 C           3.7320    0.9050    0.0000 C.3     1  UNL1       -0.0533
     32 C          28.8468    0.4050    0.0000 C.3     1  UNL1       -0.0559
     33 C           2.8660    0.4050    0.0000 C.3     1  UNL1       -0.0559
     34 C          29.7128    0.9050    0.0000 C.3     1  UNL1       -0.0653
     35 C           2.0000    0.9050    0.0000 C.3     1  UNL1       -0.0653
     36 H          23.1137    0.0950    0.0000 H       1  UNL1        0.0594
     37 H          23.1831    1.3800    0.0000 H       1  UNL1        0.0290
     38 H          22.3861    1.3800    0.0000 H       1  UNL1        0.0290
     39 H          21.5201   -0.0699    0.0000 H       1  UNL1        0.0266
     40 H          22.3171   -0.0699    0.0000 H       1  UNL1        0.0266
     41 H          21.4511    1.3800    0.0000 H       1  UNL1        0.0265
     42 H          20.6540    1.3800    0.0000 H       1  UNL1        0.0265
     43 H          19.7880   -0.0699    0.0000 H       1  UNL1        0.0265
     44 H          20.5851   -0.0699    0.0000 H       1  UNL1        0.0265
     45 H          19.7190    1.3800    0.0000 H       1  UNL1        0.0265
     46 H          18.9220    1.3800    0.0000 H       1  UNL1        0.0265
     47 H          18.0560   -0.0699    0.0000 H       1  UNL1        0.0265
     48 H          18.8530   -0.0699    0.0000 H       1  UNL1        0.0265
     49 H          17.9870    1.3800    0.0000 H       1  UNL1        0.0265
     50 H          17.1899    1.3800    0.0000 H       1  UNL1        0.0265
     51 H          24.9152    1.3800    0.0000 H       1  UNL1        0.0315
     52 H          24.1181    1.3800    0.0000 H       1  UNL1        0.0315
     53 H          16.3239   -0.0699    0.0000 H       1  UNL1        0.0265
     54 H          17.1210   -0.0699    0.0000 H       1  UNL1        0.0265
     55 H          16.2549    1.3800    0.0000 H       1  UNL1        0.0265
     56 H          15.4579    1.3800    0.0000 H       1  UNL1        0.0265
     57 H          14.5919   -0.0699    0.0000 H       1  UNL1        0.0265
     58 H          15.3889   -0.0699    0.0000 H       1  UNL1        0.0265
     59 H          14.5229    1.3800    0.0000 H       1  UNL1        0.0265
     60 H          13.7258    1.3800    0.0000 H       1  UNL1        0.0265
     61 H          12.8598   -0.0699    0.0000 H       1  UNL1        0.0265
     62 H          13.6569   -0.0699    0.0000 H       1  UNL1        0.0265
     63 H          12.7908    1.3800    0.0000 H       1  UNL1        0.0265
     64 H          11.9938    1.3800    0.0000 H       1  UNL1        0.0265
     65 H          25.9196    0.0950    0.0000 H       1  UNL1        0.0594
     66 H          11.1278   -0.0699    0.0000 H       1  UNL1        0.0265
     67 H          11.9248   -0.0699    0.0000 H       1  UNL1        0.0265
     68 H          11.0588    1.3800    0.0000 H       1  UNL1        0.0265
     69 H          10.2617    1.3800    0.0000 H       1  UNL1        0.0265
     70 H           9.3957   -0.0699    0.0000 H       1  UNL1        0.0265
     71 H          10.1928   -0.0699    0.0000 H       1  UNL1        0.0265
     72 H           9.3267    1.3800    0.0000 H       1  UNL1        0.0265
     73 H           8.5297    1.3800    0.0000 H       1  UNL1        0.0265
     74 H          26.6472    1.3800    0.0000 H       1  UNL1        0.0290
     75 H          25.8502    1.3800    0.0000 H       1  UNL1        0.0290
     76 H           7.6636   -0.0699    0.0000 H       1  UNL1        0.0265
     77 H           8.4607   -0.0699    0.0000 H       1  UNL1        0.0265
     78 H           7.5947    1.3800    0.0000 H       1  UNL1        0.0265
     79 H           6.7976    1.3800    0.0000 H       1  UNL1        0.0265
     80 H          26.7162   -0.0699    0.0000 H       1  UNL1        0.0266
     81 H          27.5133   -0.0699    0.0000 H       1  UNL1        0.0266
     82 H           5.9316   -0.0699    0.0000 H       1  UNL1        0.0265
     83 H           6.7287   -0.0699    0.0000 H       1  UNL1        0.0265
     84 H           5.8626    1.3800    0.0000 H       1  UNL1        0.0265
     85 H           5.0656    1.3800    0.0000 H       1  UNL1        0.0265
     86 H          28.3793    1.3800    0.0000 H       1  UNL1        0.0265
     87 H          27.5822    1.3800    0.0000 H       1  UNL1        0.0265
     88 H           4.1996   -0.0699    0.0000 H       1  UNL1        0.0265
     89 H           4.9966   -0.0699    0.0000 H       1  UNL1        0.0265
     90 H          23.1137   -0.9050    0.0000 H       1  UNL1        0.2098
     91 H           4.1306    1.3800    0.0000 H       1  UNL1        0.0265
     92 H           3.3335    1.3800    0.0000 H       1  UNL1        0.0265
     93 H          25.9196   -0.9050    0.0000 H       1  UNL1        0.2098
     94 H          28.4483   -0.0699    0.0000 H       1  UNL1        0.0263
     95 H          29.2453   -0.0699    0.0000 H       1  UNL1        0.0263
     96 H           2.4675   -0.0699    0.0000 H       1  UNL1        0.0263
     97 H           3.2646   -0.0699    0.0000 H       1  UNL1        0.0263
     98 H          30.0228    0.3681    0.0000 H       1  UNL1        0.0230
     99 H          30.2497    1.2150    0.0000 H       1  UNL1        0.0230
    100 H          29.4028    1.4419    0.0000 H       1  UNL1        0.0230
    101 H           2.3100    1.4419    0.0000 H       1  UNL1        0.0230
    102 H           1.4631    1.2150    0.0000 H       1  UNL1        0.0230
    103 H           1.6900    0.3681    0.0000 H       1  UNL1        0.0230
@<TRIPOS>BOND
     1     1     3    1
     2     1    90    1
     3     2    18    1
     4     2    93    1
     5     3     4    1
     6     3    11    1
     7     3    36    1
     8     4     5    1
     9     4    37    1
    10     4    38    1
    11     5     6    1
    12     5    39    1
    13     5    40    1
    14     6     7    1
    15     6    41    1
    16     6    42    1
    17     7     8    1
    18     7    43    1
    19     7    44    1
    20     8     9    1
    21     8    45    1
    22     8    46    1
    23     9    10    1
    24     9    47    1
    25     9    48    1
    26    10    12    1
    27    10    49    1
    28    10    50    1
    29    11    18    1
    30    11    51    1
    31    11    52    1
    32    12    13    1
    33    12    53    1
    34    12    54    1
    35    13    14    1
    36    13    55    1
    37    13    56    1
    38    14    15    1
    39    14    57    1
    40    14    58    1
    41    15    16    1
    42    15    59    1
    43    15    60    1
    44    16    17    1
    45    16    61    1
    46    16    62    1
    47    17    19    1
    48    17    63    1
    49    17    64    1
    50    18    23    1
    51    18    65    1
    52    19    20    1
    53    19    66    1
    54    19    67    1
    55    20    21    1
    56    20    68    1
    57    20    69    1
    58    21    22    1
    59    21    70    1
    60    21    71    1
    61    22    24    1
    62    22    72    1
    63    22    73    1
    64    23    26    1
    65    23    74    1
    66    23    75    1
    67    24    25    1
    68    24    76    1
    69    24    77    1
    70    25    27    1
    71    25    78    1
    72    25    79    1
    73    26    29    1
    74    26    80    1
    75    26    81    1
    76    27    28    1
    77    27    82    1
    78    27    83    1
    79    28    30    1
    80    28    84    1
    81    28    85    1
    82    29    32    1
    83    29    86    1
    84    29    87    1
    85    30    31    1
    86    30    88    1
    87    30    89    1
    88    31    33    1
    89    31    91    1
    90    31    92    1
    91    32    34    1
    92    32    94    1
    93    32    95    1
    94    33    35    1
    95    33    96    1
    96    33    97    1
    97    34    98    1
    98    34    99    1
    99    34   100    1
   100    35   101    1
   101    35   102    1
   102    35   103    1
