@<TRIPOS>MOLECULE
IMPHY006302
 21 22 0 0 0
SMALL
GASTEIGER

@<TRIPOS>ATOM
      1 S           3.8968    0.9139    0.0000 S.2     1  UNL1        0.0119
      2 N           3.5878    1.8649    0.0000 N.ar    1  UNL1       -0.2150
      3 C           3.0878   -0.6739    0.0000 C.ar    1  UNL1       -0.0098
      4 C           3.0878    0.3261    0.0000 C.ar    1  UNL1        0.0396
      5 C           2.2788    0.9139    0.0000 C.ar    1  UNL1       -0.0243
      6 C           2.5878    1.8649    0.0000 C.ar    1  UNL1        0.0479
      7 C           2.2218   -1.1739    0.0000 C.ar    1  UNL1       -0.0535
      8 C           3.9538   -1.1739    0.0000 C.ar    1  UNL1       -0.0535
      9 C           2.2218   -2.1739    0.0000 C.ar    1  UNL1       -0.0612
     10 C           3.9538   -2.1739    0.0000 C.ar    1  UNL1       -0.0612
     11 C           2.0000    2.6739    0.0000 C.3     1  UNL1       -0.0217
     12 C           3.0878   -2.6739    0.0000 C.ar    1  UNL1       -0.0617
     13 H           1.6891    0.7223    0.0000 H       1  UNL1        0.0647
     14 H           1.6848   -0.8639    0.0000 H       1  UNL1        0.0624
     15 H           4.4908   -0.8639    0.0000 H       1  UNL1        0.0624
     16 H           1.6848   -2.4839    0.0000 H       1  UNL1        0.0618
     17 H           4.4908   -2.4839    0.0000 H       1  UNL1        0.0618
     18 H           2.5016    3.0384    0.0000 H       1  UNL1        0.0293
     19 H           1.6356    3.1755    0.0000 H       1  UNL1        0.0293
     20 H           1.4984    2.3095    0.0000 H       1  UNL1        0.0293
     21 H           3.0878   -3.2939    0.0000 H       1  UNL1        0.0618
@<TRIPOS>BOND
     1     1     2   ar
     2     1     4   ar
     3     2     6   ar
     4     3     4    1
     5     3     7   ar
     6     3     8   ar
     7     4     5   ar
     8     5     6   ar
     9     5    13    1
    10     6    11    1
    11     7     9   ar
    12     7    14    1
    13     8    10   ar
    14     8    15    1
    15     9    12   ar
    16     9    16    1
    17    10    12   ar
    18    10    17    1
    19    11    18    1
    20    11    19    1
    21    11    20    1
    22    12    21    1
