@<TRIPOS>MOLECULE
IMPHY007684
 72 76 0 0 0
SMALL
GASTEIGER

@<TRIPOS>ATOM
      1 O           6.8671   -1.9000    0.0000 O.3     1  UNL1       -0.3405
      2 O           5.0830    2.1484    0.0000 O.3     1  UNL1       -0.4532
      3 O           5.1350   -1.9000    0.0000 O.3     1  UNL1       -0.3405
      4 O           4.2308    0.5969    0.0000 O.2     1  UNL1       -0.2453
      5 O           9.4756   -2.4446    0.0000 O.3     1  UNL1       -0.4647
      6 O           7.7437   -2.4246    0.0000 O.2     1  UNL1       -0.2453
      7 O           6.8671   -3.9000    0.0000 O.3     1  UNL1       -0.3841
      8 O           5.4949    5.2100    0.0000 O.2     1  UNL1       -0.4706
      9 O           5.1350   -4.9000    0.0000 O.3     1  UNL1       -0.3864
     10 O           3.4030   -3.9000    0.0000 O.3     1  UNL1       -0.3865
     11 O           2.5369   -2.4000    0.0000 O.3     1  UNL1       -0.3924
     12 C           7.7331    0.6000    0.0000 C.3     1  UNL1       -0.0187
     13 C           7.7331   -0.4000    0.0000 C.3     1  UNL1        0.0328
     14 C           6.8671    1.1000    0.0000 C.3     1  UNL1        0.0069
     15 C           6.8671   -0.9000    0.0000 C.3     1  UNL1        0.0905
     16 C           8.6270    1.1347    0.0000 C.3     1  UNL1       -0.0451
     17 C           6.8831    2.1415    0.0000 C.3     1  UNL1       -0.0014
     18 C           6.0010    0.6000    0.0000 C.2     1  UNL1        0.0414
     19 C           8.6270   -0.9347    0.0000 C.2     1  UNL1        0.0416
     20 C           6.0010   -0.4000    0.0000 C.2     1  UNL1       -0.0442
     21 C           7.7331   -1.4000    0.0000 C.3     1  UNL1       -0.0524
     22 C           7.7331    1.6000    0.0000 C.3     1  UNL1       -0.0549
     23 C           9.5331    0.6208    0.0000 C.3     1  UNL1       -0.0337
     24 C           5.9851    2.6693    0.0000 C.3     1  UNL1        0.1321
     25 C           9.5331   -0.4208    0.0000 C.2     1  UNL1       -0.0734
     26 C           5.0910    1.1068    0.0000 C.2     1  UNL1        0.3360
     27 C           6.0010   -2.4000    0.0000 C.3     1  UNL1        0.1886
     28 C           8.6155   -1.9346    0.0000 C.2     1  UNL1        0.3352
     29 C           5.9889    3.6692    0.0000 C.ar    1  UNL1        0.0304
     30 C           6.0010   -3.4000    0.0000 C.3     1  UNL1        0.1341
     31 C           5.1350   -3.9000    0.0000 C.3     1  UNL1        0.1141
     32 C           4.2690   -2.4000    0.0000 C.3     1  UNL1        0.1130
     33 C           4.2690   -3.4000    0.0000 C.3     1  UNL1        0.1119
     34 C           6.8002    4.2539    0.0000 C.ar    1  UNL1       -0.0172
     35 C           5.1822    4.2602    0.0000 C.ar    1  UNL1        0.0983
     36 C           3.4030   -1.9000    0.0000 C.3     1  UNL1        0.0730
     37 C           6.4949    5.2062    0.0000 C.ar    1  UNL1        0.0921
     38 C           9.4641   -3.4445    0.0000 C.3     1  UNL1        0.0820
     39 H           8.4725    0.1807    0.0000 H       1  UNL1        0.0319
     40 H           6.3301   -1.2100    0.0000 H       1  UNL1        0.0650
     41 H           9.0207    1.6137    0.0000 H       1  UNL1        0.0271
     42 H           8.2224    1.6044    0.0000 H       1  UNL1        0.0271
     43 H           7.4923    2.0260    0.0000 H       1  UNL1        0.0313
     44 H           7.1012    2.7219    0.0000 H       1  UNL1        0.0313
     45 H           5.4641   -0.7100    0.0000 H       1  UNL1        0.0603
     46 H           7.1131   -1.4000    0.0000 H       1  UNL1        0.0239
     47 H           7.7331   -2.0200    0.0000 H       1  UNL1        0.0239
     48 H           8.3531   -1.4000    0.0000 H       1  UNL1        0.0239
     49 H           8.0431    1.0631    0.0000 H       1  UNL1        0.0238
     50 H           8.2700    1.9100    0.0000 H       1  UNL1        0.0238
     51 H           7.4231    2.1369    0.0000 H       1  UNL1        0.0238
     52 H          10.1440    0.5147    0.0000 H       1  UNL1        0.0308
     53 H           9.7422    1.2045    0.0000 H       1  UNL1        0.0308
     54 H           5.4488    2.9803    0.0000 H       1  UNL1        0.0786
     55 H          10.0688   -0.7329    0.0000 H       1  UNL1        0.0577
     56 H           6.0010   -1.7800    0.0000 H       1  UNL1        0.0938
     57 H           6.0010   -4.0200    0.0000 H       1  UNL1        0.0671
     58 H           4.5981   -4.2100    0.0000 H       1  UNL1        0.0648
     59 H           4.2690   -1.7800    0.0000 H       1  UNL1        0.0647
     60 H           3.7320   -3.0900    0.0000 H       1  UNL1        0.0647
     61 H           7.3891    4.0601    0.0000 H       1  UNL1        0.0653
     62 H           4.5918    4.0708    0.0000 H       1  UNL1        0.1033
     63 H           3.8015   -1.4251    0.0000 H       1  UNL1        0.0584
     64 H           3.0044   -1.4251    0.0000 H       1  UNL1        0.0584
     65 H           6.8671   -4.5200    0.0000 H       1  UNL1        0.2101
     66 H           6.8612    5.7063    0.0000 H       1  UNL1        0.1029
     67 H           4.5981   -5.2100    0.0000 H       1  UNL1        0.2100
     68 H           8.8441   -3.4373    0.0000 H       1  UNL1        0.0661
     69 H           9.4569   -4.0645    0.0000 H       1  UNL1        0.0661
     70 H          10.0840   -3.4517    0.0000 H       1  UNL1        0.0661
     71 H           3.4030   -4.5200    0.0000 H       1  UNL1        0.2100
     72 H           2.0000   -2.0900    0.0000 H       1  UNL1        0.2095
@<TRIPOS>BOND
     1    15     1    1
     2    27     1    1
     3     2    24    1
     4     2    26    1
     5     3    27    1
     6     3    32    1
     7     4    26    2
     8     5    28    1
     9     5    38    1
    10     6    28    2
    11    30     7    1
    12     7    65    1
    13     8    35   ar
    14     8    37   ar
    15    31     9    1
    16     9    67    1
    17    33    10    1
    18    10    71    1
    19    11    36    1
    20    11    72    1
    21    12    13    1
    22    12    14    1
    23    12    16    1
    24    12    39    1
    25    13    15    1
    26    13    19    1
    27    13    21    1
    28    14    17    1
    29    14    18    1
    30    14    22    1
    31    15    20    1
    32    15    40    1
    33    16    23    1
    34    16    41    1
    35    16    42    1
    36    17    24    1
    37    17    43    1
    38    17    44    1
    39    18    20    2
    40    18    26    1
    41    19    25    2
    42    19    28    1
    43    20    45    1
    44    21    46    1
    45    21    47    1
    46    21    48    1
    47    22    49    1
    48    22    50    1
    49    22    51    1
    50    23    25    1
    51    23    52    1
    52    23    53    1
    53    24    29    1
    54    24    54    1
    55    25    55    1
    56    27    30    1
    57    27    56    1
    58    29    34   ar
    59    29    35   ar
    60    30    31    1
    61    30    57    1
    62    31    33    1
    63    31    58    1
    64    32    33    1
    65    32    36    1
    66    32    59    1
    67    33    60    1
    68    34    37   ar
    69    34    61    1
    70    35    62    1
    71    36    63    1
    72    36    64    1
    73    37    66    1
    74    38    68    1
    75    38    69    1
    76    38    70    1
