@<TRIPOS>MOLECULE
IMPHY009839
 26 27 0 0 0
SMALL
GASTEIGER

@<TRIPOS>ATOM
      1 O           5.2619   -0.6815    0.0000 O.3     1  UNL1       -0.4220
      2 O           4.9889   -2.4367    0.0000 O.2     1  UNL1       -0.2445
      3 C           3.7320   -0.1815    0.0000 C.ar    1  UNL1        0.0310
      4 C           5.9674    1.2800    0.0000 C.3     1  UNL1       -0.0313
      5 C           4.6783    0.1233    0.0000 C.2     1  UNL1        0.1360
      6 C           3.7320   -1.1815    0.0000 C.ar    1  UNL1        0.0700
      7 C           6.2781    2.2305    0.0000 C.3     1  UNL1       -0.0523
      8 C           4.9889    1.0738    0.0000 C.2     1  UNL1       -0.0409
      9 C           2.8660    0.3185    0.0000 C.ar    1  UNL1       -0.0503
     10 C           4.6783   -1.4862    0.0000 C.2     1  UNL1        0.3451
     11 C           2.8660   -1.6815    0.0000 C.ar    1  UNL1       -0.0471
     12 C           7.2566    2.4367    0.0000 C.3     1  UNL1       -0.0650
     13 C           2.0000   -0.1815    0.0000 C.ar    1  UNL1       -0.0610
     14 C           2.0000   -1.1815    0.0000 C.ar    1  UNL1       -0.0609
     15 H           5.9880    0.6603    0.0000 H       1  UNL1        0.0308
     16 H           6.5812    1.1926    0.0000 H       1  UNL1        0.0308
     17 H           6.2575    2.8502    0.0000 H       1  UNL1        0.0266
     18 H           5.6643    2.3179    0.0000 H       1  UNL1        0.0266
     19 H           4.5749    1.5352    0.0000 H       1  UNL1        0.0609
     20 H           2.8660    0.9385    0.0000 H       1  UNL1        0.0625
     21 H           2.8660   -2.3015    0.0000 H       1  UNL1        0.0626
     22 H           7.3845    1.8301    0.0000 H       1  UNL1        0.0230
     23 H           7.8633    2.5646    0.0000 H       1  UNL1        0.0230
     24 H           7.1288    3.0434    0.0000 H       1  UNL1        0.0230
     25 H           1.4631    0.1285    0.0000 H       1  UNL1        0.0618
     26 H           1.4631   -1.4915    0.0000 H       1  UNL1        0.0618
@<TRIPOS>BOND
     1     1     5    1
     2     1    10    1
     3     2    10    2
     4     3     5    1
     5     3     6   ar
     6     3     9   ar
     7     4     7    1
     8     4     8    1
     9     4    15    1
    10     4    16    1
    11     5     8    2
    12     6    10    1
    13     6    11   ar
    14     7    12    1
    15     7    17    1
    16     7    18    1
    17     8    19    1
    18     9    13   ar
    19     9    20    1
    20    11    14   ar
    21    11    21    1
    22    12    22    1
    23    12    23    1
    24    12    24    1
    25    13    14   ar
    26    13    25    1
    27    14    26    1
