@<TRIPOS>MOLECULE
IMPHY007971
 42 42 0 0 0
SMALL
GASTEIGER

@<TRIPOS>ATOM
      1 O           8.0622   -0.8100    0.0000 O.3     1  UNL1       -0.3947
      2 C           5.4641   -0.3100    0.0000 C.3     1  UNL1       -0.0327
      3 C           6.3301   -0.8100    0.0000 C.3     1  UNL1       -0.0175
      4 C           5.4641    0.6900    0.0000 C.3     1  UNL1       -0.0459
      5 C           4.5981   -0.8100    0.0000 C.3     1  UNL1       -0.0314
      6 C           4.5981    1.1900    0.0000 C.3     1  UNL1       -0.0317
      7 C           7.1962   -0.3100    0.0000 C.3     1  UNL1        0.0470
      8 C           6.3301   -1.8100    0.0000 C.3     1  UNL1       -0.0601
      9 C           3.7320   -0.3100    0.0000 C.2     1  UNL1       -0.0847
     10 C           3.7320    0.6900    0.0000 C.2     1  UNL1       -0.0765
     11 C           2.8660   -0.8100    0.0000 C.2     1  UNL1       -0.0762
     12 C           2.0000   -0.3100    0.0000 C.3     1  UNL1       -0.0286
     13 C           2.0000    0.6900    0.0000 C.3     1  UNL1       -0.0308
     14 C           2.8660    1.1900    0.0000 C.2     1  UNL1       -0.0847
     15 C           3.4630   -0.8365    0.0000 C.3     1  UNL1       -0.0438
     16 C           2.8660   -1.8100    0.0000 C.3     1  UNL1       -0.0438
     17 H           5.4641   -0.9300    0.0000 H       1  UNL1        0.0307
     18 H           6.8671   -1.1200    0.0000 H       1  UNL1        0.0323
     19 H           6.0747    0.5823    0.0000 H       1  UNL1        0.0271
     20 H           5.6762    1.2726    0.0000 H       1  UNL1        0.0271
     21 H           4.1996   -1.2850    0.0000 H       1  UNL1        0.0310
     22 H           4.9966   -1.2850    0.0000 H       1  UNL1        0.0310
     23 H           4.9966    1.6650    0.0000 H       1  UNL1        0.0310
     24 H           4.1996    1.6650    0.0000 H       1  UNL1        0.0310
     25 H           7.5947    0.1649    0.0000 H       1  UNL1        0.0560
     26 H           6.7976    0.1649    0.0000 H       1  UNL1        0.0560
     27 H           5.7101   -1.8100    0.0000 H       1  UNL1        0.0233
     28 H           6.3301   -2.4300    0.0000 H       1  UNL1        0.0233
     29 H           6.9501   -1.8100    0.0000 H       1  UNL1        0.0233
     30 H           4.1306    0.1649    0.0000 H       1  UNL1        0.0572
     31 H           1.3894   -0.2023    0.0000 H       1  UNL1        0.0313
     32 H           1.7880   -0.8926    0.0000 H       1  UNL1        0.0313
     33 H           1.7880    1.2726    0.0000 H       1  UNL1        0.0310
     34 H           1.3894    0.5823    0.0000 H       1  UNL1        0.0310
     35 H           2.8660    1.8100    0.0000 H       1  UNL1        0.0572
     36 H           2.8524   -0.7289    0.0000 H       1  UNL1        0.0274
     37 H           3.3554   -1.4471    0.0000 H       1  UNL1        0.0274
     38 H           4.0736   -0.9441    0.0000 H       1  UNL1        0.0274
     39 H           2.2460   -1.8100    0.0000 H       1  UNL1        0.0274
     40 H           2.8660   -2.4300    0.0000 H       1  UNL1        0.0274
     41 H           3.4860   -1.8100    0.0000 H       1  UNL1        0.0274
     42 H           8.5991   -0.5000    0.0000 H       1  UNL1        0.2094
@<TRIPOS>BOND
     1     1     7    1
     2     1    42    1
     3     2     3    1
     4     2     4    1
     5     2     5    1
     6     2    17    1
     7     3     7    1
     8     3     8    1
     9     3    18    1
    10     4     6    1
    11     4    19    1
    12     4    20    1
    13     5     9    1
    14     5    21    1
    15     5    22    1
    16     6    10    1
    17     6    23    1
    18     6    24    1
    19     7    25    1
    20     7    26    1
    21     8    27    1
    22     8    28    1
    23     8    29    1
    24     9    11    2
    25     9    30    1
    26    10    14    2
    27    10    15    1
    28    11    12    1
    29    11    16    1
    30    12    13    1
    31    12    31    1
    32    12    32    1
    33    13    14    1
    34    13    33    1
    35    13    34    1
    36    14    35    1
    37    15    36    1
    38    15    37    1
    39    15    38    1
    40    16    39    1
    41    16    40    1
    42    16    41    1
