@<TRIPOS>MOLECULE
IMPHY017051
 40 39 0 0 0
SMALL
GASTEIGER

@<TRIPOS>ATOM
      1 O          10.6603    1.9400    0.0000 O.2     1  UNL1       -0.5143
      2 C           4.5981    0.4400    0.0000 C.3     1  UNL1       -0.0286
      3 C           3.7320   -0.0600    0.0000 C.3     1  UNL1       -0.0308
      4 C           4.5981    1.4400    0.0000 C.2     1  UNL1       -0.0759
      5 C           5.4641    1.9400    0.0000 C.2     1  UNL1       -0.0813
      6 C           3.7320   -1.0600    0.0000 C.2     1  UNL1       -0.0850
      7 C           6.3301    1.4400    0.0000 C.3     1  UNL1       -0.0158
      8 C           3.7320    1.9400    0.0000 C.3     1  UNL1       -0.0438
      9 C           2.8660   -1.5600    0.0000 C.2     1  UNL1       -0.0796
     10 C           7.1962    1.9400    0.0000 C.2     1  UNL1       -0.0773
     11 C           2.8660   -2.5600    0.0000 C.3     1  UNL1       -0.0440
     12 C           2.0000   -1.0600    0.0000 C.3     1  UNL1       -0.0440
     13 C           8.0622    1.4400    0.0000 C.2     1  UNL1       -0.0512
     14 C           8.0622    0.4400    0.0000 C.3     1  UNL1       -0.0399
     15 C           8.9282    1.9400    0.0000 C.2     1  UNL1       -0.0250
     16 C           9.7942    1.4400    0.0000 C.2     1  UNL1        0.0811
     17 H           4.8101   -0.1426    0.0000 H       1  UNL1        0.0313
     18 H           5.2087    0.5477    0.0000 H       1  UNL1        0.0313
     19 H           3.5200    0.5226    0.0000 H       1  UNL1        0.0310
     20 H           3.1215   -0.1677    0.0000 H       1  UNL1        0.0310
     21 H           5.4641    2.5600    0.0000 H       1  UNL1        0.0575
     22 H           4.2690   -1.3700    0.0000 H       1  UNL1        0.0572
     23 H           5.9316    0.9651    0.0000 H       1  UNL1        0.0350
     24 H           6.7287    0.9651    0.0000 H       1  UNL1        0.0350
     25 H           4.0420    2.4769    0.0000 H       1  UNL1        0.0274
     26 H           3.1951    2.2500    0.0000 H       1  UNL1        0.0274
     27 H           3.4220    1.4031    0.0000 H       1  UNL1        0.0274
     28 H           7.1962    2.5600    0.0000 H       1  UNL1        0.0578
     29 H           2.2460   -2.5600    0.0000 H       1  UNL1        0.0274
     30 H           2.8660   -3.1800    0.0000 H       1  UNL1        0.0274
     31 H           3.4860   -2.5600    0.0000 H       1  UNL1        0.0274
     32 H           2.3100   -0.5231    0.0000 H       1  UNL1        0.0274
     33 H           1.4631   -0.7500    0.0000 H       1  UNL1        0.0274
     34 H           1.6900   -1.5969    0.0000 H       1  UNL1        0.0274
     35 H           7.4422    0.4400    0.0000 H       1  UNL1        0.0277
     36 H           8.0622   -0.1800    0.0000 H       1  UNL1        0.0277
     37 H           8.6822    0.4400    0.0000 H       1  UNL1        0.0277
     38 H           8.9282    2.5600    0.0000 H       1  UNL1        0.0650
     39 H           9.7942    0.8200    0.0000 H       1  UNL1        0.1021
     40 H          11.1972    1.6300    0.0000 H       1  UNL1        0.2912
@<TRIPOS>BOND
     1     1    16    1
     2     1    40    1
     3     2     3    1
     4     2     4    1
     5     2    17    1
     6     2    18    1
     7     3     6    1
     8     3    19    1
     9     3    20    1
    10     4     5    2
    11     4     8    1
    12     5     7    1
    13     5    21    1
    14     6     9    2
    15     6    22    1
    16     7    10    1
    17     7    23    1
    18     7    24    1
    19     8    25    1
    20     8    26    1
    21     8    27    1
    22     9    11    1
    23     9    12    1
    24    10    13    2
    25    10    28    1
    26    11    29    1
    27    11    30    1
    28    11    31    1
    29    12    32    1
    30    12    33    1
    31    12    34    1
    32    13    14    1
    33    13    15    1
    34    14    35    1
    35    14    36    1
    36    14    37    1
    37    15    16    2
    38    15    38    1
    39    16    39    1
