@<TRIPOS>MOLECULE
IMPHY017013
 26 26 0 0 0
SMALL
GASTEIGER

@<TRIPOS>ATOM
      1 O           4.5981   -1.7780    0.0000 O.3     1  UNL1       -0.3834
      2 O           2.0000    0.7220    0.0000 O.2     1  UNL1       -0.2960
      3 C           4.5981    1.2220    0.0000 C.3     1  UNL1        0.0112
      4 C           3.7320    0.7220    0.0000 C.2     1  UNL1       -0.0000
      5 C           5.4641    0.7220    0.0000 C.2     1  UNL1       -0.0723
      6 C           5.4641   -0.2780    0.0000 C.2     1  UNL1       -0.0438
      7 C           4.5981   -0.7780    0.0000 C.3     1  UNL1        0.0949
      8 C           5.0981    2.0880    0.0000 C.3     1  UNL1       -0.0522
      9 C           4.0981    2.0880    0.0000 C.3     1  UNL1       -0.0522
     10 C           3.7320   -0.2780    0.0000 C.2     1  UNL1       -0.0448
     11 C           6.3301   -0.7780    0.0000 C.3     1  UNL1       -0.0410
     12 C           2.8660    1.2220    0.0000 C.2     1  UNL1        0.1469
     13 H           6.0010    1.0320    0.0000 H       1  UNL1        0.0581
     14 H           5.1350   -1.0880    0.0000 H       1  UNL1        0.0685
     15 H           5.6350    1.7780    0.0000 H       1  UNL1        0.0241
     16 H           5.4081    2.6250    0.0000 H       1  UNL1        0.0241
     17 H           4.5611    2.3980    0.0000 H       1  UNL1        0.0241
     18 H           4.6350    2.3980    0.0000 H       1  UNL1        0.0241
     19 H           3.7881    2.6250    0.0000 H       1  UNL1        0.0241
     20 H           3.5611    1.7780    0.0000 H       1  UNL1        0.0241
     21 H           3.1951   -0.5880    0.0000 H       1  UNL1        0.0605
     22 H           6.0201   -1.3150    0.0000 H       1  UNL1        0.0275
     23 H           6.8671   -1.0880    0.0000 H       1  UNL1        0.0275
     24 H           6.6401   -0.2411    0.0000 H       1  UNL1        0.0275
     25 H           2.8660    1.8420    0.0000 H       1  UNL1        0.1078
     26 H           4.0611   -2.0880    0.0000 H       1  UNL1        0.2107
@<TRIPOS>BOND
     1     1     7    1
     2     1    26    1
     3     2    12    2
     4     3     4    1
     5     3     5    1
     6     3     8    1
     7     3     9    1
     8     4    10    2
     9     4    12    1
    10     5     6    2
    11     5    13    1
    12     6     7    1
    13     6    11    1
    14     7    10    1
    15     7    14    1
    16     8    15    1
    17     8    16    1
    18     8    17    1
    19     9    18    1
    20     9    19    1
    21     9    20    1
    22    10    21    1
    23    11    22    1
    24    11    23    1
    25    11    24    1
    26    12    25    1
