@<TRIPOS>MOLECULE
IMPHY000276
 101 103 0 0 0
SMALL
GASTEIGER

@<TRIPOS>ATOM
      1 O           6.8477   -0.7319    0.0000 O.3     1  UNL1       -0.3682
      2 O           5.0040    3.0798    0.0000 O.3     1  UNL1       -0.3682
      3 O           3.7601  -13.8219    0.0000 O.3     1  UNL1       -0.4542
      4 O           5.5202  -13.5431    0.0000 O.2     1  UNL1       -0.2453
      5 C           6.0387   -0.1441    0.0000 C.3     1  UNL1        0.0853
      6 C           5.8130    2.4920    0.0000 C.3     1  UNL1        0.0853
      7 C           5.9342   -1.1386    0.0000 C.3     1  UNL1        0.0852
      8 C           5.9175    3.4865    0.0000 C.3     1  UNL1        0.0852
      9 C           5.6319    0.7694    0.0000 C.3     1  UNL1       -0.0217
     10 C           6.2197    1.5784    0.0000 C.3     1  UNL1       -0.0217
     11 C           5.3464   -1.9477    0.0000 C.3     1  UNL1       -0.0241
     12 C           6.5053    4.2955    0.0000 C.3     1  UNL1       -0.0241
     13 C           5.7531   -2.8612    0.0000 C.3     1  UNL1       -0.0506
     14 C           6.0986    5.2091    0.0000 C.3     1  UNL1       -0.0506
     15 C           5.1653   -3.6702    0.0000 C.3     1  UNL1       -0.0530
     16 C           6.6864    6.0181    0.0000 C.3     1  UNL1       -0.0530
     17 C           5.5720   -4.5838    0.0000 C.3     1  UNL1       -0.0531
     18 C           6.2796    6.9316    0.0000 C.3     1  UNL1       -0.0531
     19 C           4.9843   -5.3928    0.0000 C.3     1  UNL1       -0.0531
     20 C           6.8674    7.7406    0.0000 C.3     1  UNL1       -0.0531
     21 C           5.3910   -6.3063    0.0000 C.3     1  UNL1       -0.0531
     22 C           6.4607    8.6542    0.0000 C.3     1  UNL1       -0.0531
     23 C           4.8032   -7.1154    0.0000 C.3     1  UNL1       -0.0531
     24 C           7.0484    9.4632    0.0000 C.3     1  UNL1       -0.0531
     25 C           5.2100   -8.0289    0.0000 C.3     1  UNL1       -0.0531
     26 C           6.6417   10.3768    0.0000 C.3     1  UNL1       -0.0531
     27 C           4.6222   -8.8379    0.0000 C.3     1  UNL1       -0.0530
     28 C           7.2295   11.1858    0.0000 C.3     1  UNL1       -0.0531
     29 C           5.0289   -9.7515    0.0000 C.3     1  UNL1       -0.0528
     30 C           6.8228   12.0993    0.0000 C.3     1  UNL1       -0.0533
     31 C           4.4411  -10.5605    0.0000 C.3     1  UNL1       -0.0488
     32 C           4.8479  -11.4740    0.0000 C.3     1  UNL1       -0.0211
     33 C           7.4106   12.9083    0.0000 C.3     1  UNL1       -0.0559
     34 C           4.2601  -12.2830    0.0000 C.2     1  UNL1        0.0361
     35 C           7.0038   13.8219    0.0000 C.3     1  UNL1       -0.0653
     36 C           3.2601  -12.2830    0.0000 C.2     1  UNL1       -0.0343
     37 C           2.9511  -13.2341    0.0000 C.3     1  UNL1        0.1195
     38 C           4.5691  -13.2341    0.0000 C.2     1  UNL1        0.3355
     39 C           2.0000  -13.5431    0.0000 C.3     1  UNL1       -0.0240
     40 H           6.5205    0.2461    0.0000 H       1  UNL1        0.0622
     41 H           5.3312    2.1018    0.0000 H       1  UNL1        0.0622
     42 H           6.3243   -1.6205    0.0000 H       1  UNL1        0.0622
     43 H           5.5273    3.9683    0.0000 H       1  UNL1        0.0622
     44 H           5.2012    1.2154    0.0000 H       1  UNL1        0.0292
     45 H           5.1179    0.4227    0.0000 H       1  UNL1        0.0292
     46 H           6.6504    1.1324    0.0000 H       1  UNL1        0.0292
     47 H           6.7337    1.9251    0.0000 H       1  UNL1        0.0292
     48 H           4.9157   -1.5017    0.0000 H       1  UNL1        0.0291
     49 H           4.8324   -2.2944    0.0000 H       1  UNL1        0.0291
     50 H           6.9360    3.8495    0.0000 H       1  UNL1        0.0291
     51 H           7.0193    4.6422    0.0000 H       1  UNL1        0.0291
     52 H           6.1838   -3.3072    0.0000 H       1  UNL1        0.0266
     53 H           6.2671   -2.5145    0.0000 H       1  UNL1        0.0266
     54 H           5.6679    5.6551    0.0000 H       1  UNL1        0.0266
     55 H           5.5846    4.8624    0.0000 H       1  UNL1        0.0266
     56 H           4.7346   -3.2242    0.0000 H       1  UNL1        0.0265
     57 H           4.6513   -4.0169    0.0000 H       1  UNL1        0.0265
     58 H           7.1170    5.5721    0.0000 H       1  UNL1        0.0265
     59 H           7.2004    6.3648    0.0000 H       1  UNL1        0.0265
     60 H           6.0027   -5.0298    0.0000 H       1  UNL1        0.0265
     61 H           6.0861   -4.2371    0.0000 H       1  UNL1        0.0265
     62 H           5.8489    7.3776    0.0000 H       1  UNL1        0.0265
     63 H           5.7656    6.5849    0.0000 H       1  UNL1        0.0265
     64 H           4.5536   -4.9468    0.0000 H       1  UNL1        0.0265
     65 H           4.4703   -5.7395    0.0000 H       1  UNL1        0.0265
     66 H           7.2981    7.2947    0.0000 H       1  UNL1        0.0265
     67 H           7.3814    8.0874    0.0000 H       1  UNL1        0.0265
     68 H           5.8217   -6.7523    0.0000 H       1  UNL1        0.0265
     69 H           5.9050   -5.9596    0.0000 H       1  UNL1        0.0265
     70 H           6.0300    9.1002    0.0000 H       1  UNL1        0.0265
     71 H           5.9467    8.3075    0.0000 H       1  UNL1        0.0265
     72 H           4.3725   -6.6694    0.0000 H       1  UNL1        0.0265
     73 H           4.2892   -7.4620    0.0000 H       1  UNL1        0.0265
     74 H           7.4791    9.0172    0.0000 H       1  UNL1        0.0265
     75 H           7.5624    9.8099    0.0000 H       1  UNL1        0.0265
     76 H           5.6406   -8.4749    0.0000 H       1  UNL1        0.0265
     77 H           5.7240   -7.6822    0.0000 H       1  UNL1        0.0265
     78 H           6.2110   10.8227    0.0000 H       1  UNL1        0.0265
     79 H           6.1277   10.0301    0.0000 H       1  UNL1        0.0265
     80 H           4.1915   -8.3919    0.0000 H       1  UNL1        0.0265
     81 H           4.1082   -9.1846    0.0000 H       1  UNL1        0.0265
     82 H           7.6602   10.7398    0.0000 H       1  UNL1        0.0265
     83 H           7.7435   11.5325    0.0000 H       1  UNL1        0.0265
     84 H           5.4596  -10.1974    0.0000 H       1  UNL1        0.0265
     85 H           5.5429   -9.4048    0.0000 H       1  UNL1        0.0265
     86 H           6.3921   12.5453    0.0000 H       1  UNL1        0.0265
     87 H           6.3088   11.7526    0.0000 H       1  UNL1        0.0265
     88 H           4.0104  -10.1145    0.0000 H       1  UNL1        0.0268
     89 H           3.9271  -10.9072    0.0000 H       1  UNL1        0.0268
     90 H           5.2786  -11.9200    0.0000 H       1  UNL1        0.0315
     91 H           5.3619  -11.1273    0.0000 H       1  UNL1        0.0315
     92 H           7.8412   12.4623    0.0000 H       1  UNL1        0.0263
     93 H           7.9246   13.2550    0.0000 H       1  UNL1        0.0263
     94 H           7.5702   14.0741    0.0000 H       1  UNL1        0.0230
     95 H           6.7516   14.3883    0.0000 H       1  UNL1        0.0230
     96 H           6.4374   13.5697    0.0000 H       1  UNL1        0.0230
     97 H           2.8956  -11.7814    0.0000 H       1  UNL1        0.0613
     98 H           2.8541  -13.8465    0.0000 H       1  UNL1        0.0777
     99 H           1.8084  -12.9535    0.0000 H       1  UNL1        0.0268
    100 H           1.4103  -13.7347    0.0000 H       1  UNL1        0.0268
    101 H           2.1916  -14.1328    0.0000 H       1  UNL1        0.0268
@<TRIPOS>BOND
     1     1     5    1
     2     1     7    1
     3     2     6    1
     4     2     8    1
     5     3    37    1
     6     3    38    1
     7     4    38    2
     8     5     7    1
     9     5     9    1
    10     5    40    1
    11     6     8    1
    12     6    10    1
    13     6    41    1
    14     7    11    1
    15     7    42    1
    16     8    12    1
    17     8    43    1
    18     9    10    1
    19     9    44    1
    20     9    45    1
    21    10    46    1
    22    10    47    1
    23    11    13    1
    24    11    48    1
    25    11    49    1
    26    12    14    1
    27    12    50    1
    28    12    51    1
    29    13    15    1
    30    13    52    1
    31    13    53    1
    32    14    16    1
    33    14    54    1
    34    14    55    1
    35    15    17    1
    36    15    56    1
    37    15    57    1
    38    16    18    1
    39    16    58    1
    40    16    59    1
    41    17    19    1
    42    17    60    1
    43    17    61    1
    44    18    20    1
    45    18    62    1
    46    18    63    1
    47    19    21    1
    48    19    64    1
    49    19    65    1
    50    20    22    1
    51    20    66    1
    52    20    67    1
    53    21    23    1
    54    21    68    1
    55    21    69    1
    56    22    24    1
    57    22    70    1
    58    22    71    1
    59    23    25    1
    60    23    72    1
    61    23    73    1
    62    24    26    1
    63    24    74    1
    64    24    75    1
    65    25    27    1
    66    25    76    1
    67    25    77    1
    68    26    28    1
    69    26    78    1
    70    26    79    1
    71    27    29    1
    72    27    80    1
    73    27    81    1
    74    28    30    1
    75    28    82    1
    76    28    83    1
    77    29    31    1
    78    29    84    1
    79    29    85    1
    80    30    33    1
    81    30    86    1
    82    30    87    1
    83    31    32    1
    84    31    88    1
    85    31    89    1
    86    32    34    1
    87    32    90    1
    88    32    91    1
    89    33    35    1
    90    33    92    1
    91    33    93    1
    92    34    36    2
    93    34    38    1
    94    35    94    1
    95    35    95    1
    96    35    96    1
    97    36    37    1
    98    36    97    1
    99    37    39    1
   100    37    98    1
   101    39    99    1
   102    39   100    1
   103    39   101    1
