@<TRIPOS>MOLECULE
IMPHY009097
 33 34 0 0 0
SMALL
GASTEIGER

@<TRIPOS>ATOM
      1 O           5.2619   -1.1567    0.0000 O.3     1  UNL1       -0.4531
      2 O           4.9889   -2.9120    0.0000 O.2     1  UNL1       -0.2449
      3 N           7.2566    1.9615    0.0000 N.3     1  UNL1       -0.3083
      4 C           4.6783   -0.3520    0.0000 C.3     1  UNL1        0.1292
      5 C           4.9889    0.5985    0.0000 C.3     1  UNL1       -0.0102
      6 C           5.9674    0.8047    0.0000 C.3     1  UNL1       -0.0366
      7 C           3.7320   -0.6567    0.0000 C.ar    1  UNL1        0.0067
      8 C           6.2781    1.7552    0.0000 C.3     1  UNL1       -0.0016
      9 C           3.7320   -1.6567    0.0000 C.ar    1  UNL1        0.0657
     10 C           4.6783   -1.9615    0.0000 C.2     1  UNL1        0.3401
     11 C           2.8660   -0.1567    0.0000 C.ar    1  UNL1       -0.0543
     12 C           2.8660   -2.1567    0.0000 C.ar    1  UNL1       -0.0474
     13 C           2.0000   -0.6567    0.0000 C.ar    1  UNL1       -0.0613
     14 C           2.0000   -1.6567    0.0000 C.ar    1  UNL1       -0.0610
     15 C           7.5673    2.9120    0.0000 C.3     1  UNL1       -0.0131
     16 C           7.9244    1.2172    0.0000 C.3     1  UNL1       -0.0131
     17 H           5.2908   -0.2558    0.0000 H       1  UNL1        0.0785
     18 H           4.9684    1.2182    0.0000 H       1  UNL1        0.0305
     19 H           4.3751    0.6859    0.0000 H       1  UNL1        0.0305
     20 H           5.9880    0.1851    0.0000 H       1  UNL1        0.0279
     21 H           6.5812    0.7174    0.0000 H       1  UNL1        0.0279
     22 H           6.2575    2.3749    0.0000 H       1  UNL1        0.0426
     23 H           5.6643    1.8426    0.0000 H       1  UNL1        0.0426
     24 H           2.8660    0.4633    0.0000 H       1  UNL1        0.0622
     25 H           2.8660   -2.7767    0.0000 H       1  UNL1        0.0626
     26 H           1.4631   -0.3467    0.0000 H       1  UNL1        0.0618
     27 H           7.4630    0.8031    0.0000 H       1  UNL1        0.0391
     28 H           8.3385    0.7557    0.0000 H       1  UNL1        0.0391
     29 H           8.1566    2.7194    0.0000 H       1  UNL1        0.0391
     30 H           7.7599    3.5013    0.0000 H       1  UNL1        0.0391
     31 H           6.9780    3.1046    0.0000 H       1  UNL1        0.0391
     32 H           8.3859    1.6312    0.0000 H       1  UNL1        0.0391
     33 H           1.4631   -1.9667    0.0000 H       1  UNL1        0.0618
@<TRIPOS>BOND
     1     1     4    1
     2     1    10    1
     3     2    10    2
     4     3     8    1
     5     3    15    1
     6     3    16    1
     7     4     5    1
     8     4     7    1
     9     4    17    1
    10     5     6    1
    11     5    18    1
    12     5    19    1
    13     6     8    1
    14     6    20    1
    15     6    21    1
    16     7     9   ar
    17     7    11   ar
    18     8    22    1
    19     8    23    1
    20     9    10    1
    21     9    12   ar
    22    11    13   ar
    23    11    24    1
    24    12    14   ar
    25    12    25    1
    26    13    14   ar
    27    13    26    1
    28    14    33    1
    29    15    29    1
    30    15    30    1
    31    15    31    1
    32    16    27    1
    33    16    28    1
    34    16    32    1
