@<TRIPOS>MOLECULE
IMPHY002451
 141 148 0 0 0
SMALL
GASTEIGER

@<TRIPOS>ATOM
      1 O           8.6192    4.5909    0.0000 O.3     1  UNL1       -0.3450
      2 O           7.0902    5.8229    0.0000 O.3     1  UNL1       -0.3642
      3 O           7.1962   -3.6532    0.0000 O.3     1  UNL1       -0.3429
      4 O           5.3888   -2.6003    0.0000 O.3     1  UNL1       -0.3892
      5 O           5.4641   -3.6532    0.0000 O.3     1  UNL1       -0.3405
      6 O          11.2538    7.6903    0.0000 O.3     1  UNL1       -0.3484
      7 O           7.1962   -5.6532    0.0000 O.3     1  UNL1       -0.3841
      8 O           5.4641   -6.6532    0.0000 O.3     1  UNL1       -0.3864
      9 O           3.7320   -5.6532    0.0000 O.3     1  UNL1       -0.3401
     10 O           3.7320   -2.6532    0.0000 O.3     1  UNL1       -0.3924
     11 O          12.7563    6.8287    0.0000 O.3     1  UNL1       -0.3405
     12 O           4.5981   -7.1532    0.0000 O.3     1  UNL1       -0.3405
     13 O          12.2486    9.4253    0.0000 O.3     1  UNL1       -0.3841
     14 O          14.2486    9.4313    0.0000 O.3     1  UNL1       -0.3864
     15 O           2.0000   -6.6532    0.0000 O.3     1  UNL1       -0.3841
     16 O          15.2537    7.7022    0.0000 O.3     1  UNL1       -0.3865
     17 O           2.0000   -8.6532    0.0000 O.3     1  UNL1       -0.3864
     18 O           3.7320   -9.6532    0.0000 O.3     1  UNL1       -0.3865
     19 O          15.2589    5.9702    0.0000 O.3     1  UNL1       -0.3924
     20 O           6.3301   -8.1532    0.0000 O.3     1  UNL1       -0.3924
     21 C           7.2254    2.5437    0.0000 C.3     1  UNL1       -0.0233
     22 C           8.0934    2.0471    0.0000 C.3     1  UNL1       -0.0298
     23 C           8.0972    1.0471    0.0000 C.3     1  UNL1       -0.0343
     24 C           7.4309    3.5163    0.0000 C.3     1  UNL1       -0.0015
     25 C           7.2331    0.5437    0.0000 C.3     1  UNL1       -0.0322
     26 C           7.2211   -0.4978    0.0000 C.3     1  UNL1       -0.0237
     27 C           8.4192    3.6232    0.0000 C.3     1  UNL1        0.0660
     28 C           8.8278    2.7170    0.0000 C.3     1  UNL1       -0.0226
     29 C           6.3613    2.0404    0.0000 C.3     1  UNL1       -0.0467
     30 C           6.3652    1.0404    0.0000 C.3     1  UNL1       -0.0489
     31 C           8.1211   -1.0221    0.0000 C.3     1  UNL1       -0.0329
     32 C           7.0286    4.4189    0.0000 C.3     1  UNL1        0.0158
     33 C           9.0092    0.5437    0.0000 C.3     1  UNL1       -0.0494
     34 C           9.0212   -0.4978    0.0000 C.3     1  UNL1       -0.0494
     35 C           6.3575    3.0404    0.0000 C.3     1  UNL1       -0.0590
     36 C           7.7615    5.0817    0.0000 C.3     1  UNL1        0.1704
     37 C           6.2712   -1.0221    0.0000 C.3     1  UNL1       -0.0185
     38 C           8.1337   -2.1070    0.0000 C.3     1  UNL1       -0.0207
     39 C           6.3570    0.0055    0.0000 C.3     1  UNL1       -0.0590
     40 C           6.2586   -2.1070    0.0000 C.3     1  UNL1        0.0819
     41 C           7.1962   -2.6532    0.0000 C.3     1  UNL1        0.0879
     42 C           6.0502    4.6256    0.0000 C.3     1  UNL1       -0.0572
     43 C           8.2590    5.9492    0.0000 C.3     1  UNL1        0.0018
     44 C           9.2590    5.9522    0.0000 C.3     1  UNL1       -0.0435
     45 C           9.7564    6.8198    0.0000 C.3     1  UNL1       -0.0201
     46 C           6.3301   -4.1532    0.0000 C.3     1  UNL1        0.1883
     47 C           6.3301   -5.1532    0.0000 C.3     1  UNL1        0.1341
     48 C          10.7564    6.8227    0.0000 C.3     1  UNL1        0.0533
     49 C           9.2538    7.6843    0.0000 C.3     1  UNL1       -0.0603
     50 C           5.4641   -5.6532    0.0000 C.3     1  UNL1        0.1144
     51 C           4.5981   -4.1532    0.0000 C.3     1  UNL1        0.1134
     52 C           4.5981   -5.1532    0.0000 C.3     1  UNL1        0.1184
     53 C           3.7320   -3.6532    0.0000 C.3     1  UNL1        0.0730
     54 C          12.2538    7.6932    0.0000 C.3     1  UNL1        0.1879
     55 C           3.7320   -6.6532    0.0000 C.3     1  UNL1        0.1884
     56 C          12.7512    8.5608    0.0000 C.3     1  UNL1        0.1341
     57 C          13.7512    8.5638    0.0000 C.3     1  UNL1        0.1141
     58 C           2.8660   -7.1532    0.0000 C.3     1  UNL1        0.1341
     59 C          13.7563    6.8317    0.0000 C.3     1  UNL1        0.1130
     60 C          14.2537    7.6992    0.0000 C.3     1  UNL1        0.1119
     61 C           2.8660   -8.1532    0.0000 C.3     1  UNL1        0.1141
     62 C           4.5981   -8.1532    0.0000 C.3     1  UNL1        0.1130
     63 C           3.7320   -8.6532    0.0000 C.3     1  UNL1        0.1119
     64 C          14.2589    5.9672    0.0000 C.3     1  UNL1        0.0730
     65 C           5.4641   -8.6532    0.0000 C.3     1  UNL1        0.0730
     66 H           8.8716    1.7053    0.0000 H       1  UNL1        0.0310
     67 H           8.8284    1.4806    0.0000 H       1  UNL1        0.0306
     68 H           6.5856    3.4268    0.0000 H       1  UNL1        0.0335
     69 H           7.9676    0.1159    0.0000 H       1  UNL1        0.0309
     70 H           9.2641    3.7164    0.0000 H       1  UNL1        0.0600
     71 H           9.1952    2.2175    0.0000 H       1  UNL1        0.0293
     72 H           9.3631    3.0298    0.0000 H       1  UNL1        0.0293
     73 H           6.1470    2.6222    0.0000 H       1  UNL1        0.0271
     74 H           5.7512    1.9304    0.0000 H       1  UNL1        0.0271
     75 H           5.7542    1.1457    0.0000 H       1  UNL1        0.0268
     76 H           6.1554    0.4570    0.0000 H       1  UNL1        0.0268
     77 H           8.8605   -1.4414    0.0000 H       1  UNL1        0.0307
     78 H           6.6388    3.9368    0.0000 H       1  UNL1        0.0354
     79 H           9.6212    0.4447    0.0000 H       1  UNL1        0.0268
     80 H           9.2114    1.1298    0.0000 H       1  UNL1        0.0268
     81 H           9.2370   -1.0791    0.0000 H       1  UNL1        0.0268
     82 H           9.6308   -0.3847    0.0000 H       1  UNL1        0.0268
     83 H           6.6654    3.5785    0.0000 H       1  UNL1        0.0235
     84 H           5.8193    3.3483    0.0000 H       1  UNL1        0.0235
     85 H           6.0495    2.5022    0.0000 H       1  UNL1        0.0235
     86 H           6.0689   -0.4360    0.0000 H       1  UNL1        0.0296
     87 H           5.6591   -1.1211    0.0000 H       1  UNL1        0.0296
     88 H           8.3495   -2.6883    0.0000 H       1  UNL1        0.0294
     89 H           8.7433   -1.9939    0.0000 H       1  UNL1        0.0294
     90 H           6.6690    0.5412    0.0000 H       1  UNL1        0.0235
     91 H           5.8212    0.3176    0.0000 H       1  UNL1        0.0235
     92 H           6.0449   -0.5302    0.0000 H       1  UNL1        0.0235
     93 H           5.7247   -1.7919    0.0000 H       1  UNL1        0.0619
     94 H           7.7337   -2.9621    0.0000 H       1  UNL1        0.0623
     95 H           6.1783    5.2322    0.0000 H       1  UNL1        0.0234
     96 H           5.4436    4.7538    0.0000 H       1  UNL1        0.0234
     97 H           5.9220    4.0190    0.0000 H       1  UNL1        0.0234
     98 H           8.3648    6.5602    0.0000 H       1  UNL1        0.0317
     99 H           7.6757    6.1596    0.0000 H       1  UNL1        0.0317
    100 H           7.2800    6.4131    0.0000 H       1  UNL1        0.2128
    101 H           9.1531    5.3413    0.0000 H       1  UNL1        0.0270
    102 H           9.8422    5.7419    0.0000 H       1  UNL1        0.0270
    103 H           4.8542   -2.2862    0.0000 H       1  UNL1        0.2099
    104 H           9.1364    6.8179    0.0000 H       1  UNL1        0.0320
    105 H           6.3301   -3.5332    0.0000 H       1  UNL1        0.0938
    106 H           6.3301   -5.7732    0.0000 H       1  UNL1        0.0671
    107 H          10.6505    6.2118    0.0000 H       1  UNL1        0.0563
    108 H          11.3396    6.6124    0.0000 H       1  UNL1        0.0563
    109 H           9.7898    7.9959    0.0000 H       1  UNL1        0.0233
    110 H           8.9422    8.2203    0.0000 H       1  UNL1        0.0233
    111 H           8.7178    7.3727    0.0000 H       1  UNL1        0.0233
    112 H           4.9272   -5.9632    0.0000 H       1  UNL1        0.0648
    113 H           4.5981   -3.5332    0.0000 H       1  UNL1        0.0647
    114 H           4.0611   -4.8431    0.0000 H       1  UNL1        0.0651
    115 H           7.7331   -5.3431    0.0000 H       1  UNL1        0.2101
    116 H           3.1215   -3.5455    0.0000 H       1  UNL1        0.0584
    117 H           3.5200   -4.2358    0.0000 H       1  UNL1        0.0584
    118 H           6.0010   -6.9632    0.0000 H       1  UNL1        0.2100
    119 H          11.9454    7.1554    0.0000 H       1  UNL1        0.0937
    120 H           3.1951   -6.3431    0.0000 H       1  UNL1        0.0938
    121 H          13.0596    9.0986    0.0000 H       1  UNL1        0.0671
    122 H           3.1951   -2.3432    0.0000 H       1  UNL1        0.2095
    123 H          14.3712    8.5656    0.0000 H       1  UNL1        0.0648
    124 H           3.4281   -6.5332    0.0000 H       1  UNL1        0.0671
    125 H          13.4479    6.2938    0.0000 H       1  UNL1        0.0647
    126 H          14.5654    7.1632    0.0000 H       1  UNL1        0.0647
    127 H           2.8660   -8.7732    0.0000 H       1  UNL1        0.0648
    128 H          12.5570    9.9632    0.0000 H       1  UNL1        0.2101
    129 H           5.1350   -7.8432    0.0000 H       1  UNL1        0.0647
    130 H           4.2690   -8.9632    0.0000 H       1  UNL1        0.0647
    131 H          13.6770    5.7534    0.0000 H       1  UNL1        0.0584
    132 H          14.3684    5.3569    0.0000 H       1  UNL1        0.0584
    133 H          14.8686    9.4331    0.0000 H       1  UNL1        0.2100
    134 H           2.0000   -6.0332    0.0000 H       1  UNL1        0.2101
    135 H          15.5621    8.2401    0.0000 H       1  UNL1        0.2100
    136 H           5.0656   -9.1281    0.0000 H       1  UNL1        0.0584
    137 H           5.8626   -9.1281    0.0000 H       1  UNL1        0.0584
    138 H           2.0000   -9.2732    0.0000 H       1  UNL1        0.2100
    139 H           4.2690   -9.9632    0.0000 H       1  UNL1        0.2100
    140 H          15.5705    5.4342    0.0000 H       1  UNL1        0.2095
    141 H           6.8671   -8.4632    0.0000 H       1  UNL1        0.2095
@<TRIPOS>BOND
     1     1    27    1
     2     1    36    1
     3    36     2    1
     4     2   100    1
     5    41     3    1
     6    46     3    1
     7    40     4    1
     8     4   103    1
     9     5    46    1
    10     5    51    1
    11     6    48    1
    12    54     6    1
    13    47     7    1
    14     7   115    1
    15    50     8    1
    16     8   118    1
    17    52     9    1
    18    55     9    1
    19    10    53    1
    20    10   122    1
    21    11    54    1
    22    11    59    1
    23    12    55    1
    24    12    62    1
    25    56    13    1
    26    13   128    1
    27    57    14    1
    28    14   133    1
    29    58    15    1
    30    15   134    1
    31    60    16    1
    32    16   135    1
    33    61    17    1
    34    17   138    1
    35    63    18    1
    36    18   139    1
    37    19    64    1
    38    19   140    1
    39    20    65    1
    40    20   141    1
    41    21    22    1
    42    21    24    1
    43    21    29    1
    44    21    35    1
    45    22    23    1
    46    22    28    1
    47    22    66    1
    48    23    25    1
    49    23    33    1
    50    23    67    1
    51    24    27    1
    52    24    32    1
    53    24    68    1
    54    25    26    1
    55    25    30    1
    56    25    69    1
    57    26    31    1
    58    26    37    1
    59    26    39    1
    60    27    28    1
    61    27    70    1
    62    28    71    1
    63    28    72    1
    64    29    30    1
    65    29    73    1
    66    29    74    1
    67    30    75    1
    68    30    76    1
    69    31    34    1
    70    31    38    1
    71    31    77    1
    72    32    36    1
    73    32    42    1
    74    32    78    1
    75    33    34    1
    76    33    79    1
    77    33    80    1
    78    34    81    1
    79    34    82    1
    80    35    83    1
    81    35    84    1
    82    35    85    1
    83    36    43    1
    84    37    40    1
    85    37    86    1
    86    37    87    1
    87    38    41    1
    88    38    88    1
    89    38    89    1
    90    39    90    1
    91    39    91    1
    92    39    92    1
    93    40    41    1
    94    40    93    1
    95    41    94    1
    96    42    95    1
    97    42    96    1
    98    42    97    1
    99    43    44    1
   100    43    98    1
   101    43    99    1
   102    44    45    1
   103    44   101    1
   104    44   102    1
   105    45    48    1
   106    45    49    1
   107    45   104    1
   108    46    47    1
   109    46   105    1
   110    47    50    1
   111    47   106    1
   112    48   107    1
   113    48   108    1
   114    49   109    1
   115    49   110    1
   116    49   111    1
   117    50    52    1
   118    50   112    1
   119    51    52    1
   120    51    53    1
   121    51   113    1
   122    52   114    1
   123    53   116    1
   124    53   117    1
   125    54    56    1
   126    54   119    1
   127    55    58    1
   128    55   120    1
   129    56    57    1
   130    56   121    1
   131    57    60    1
   132    57   123    1
   133    58    61    1
   134    58   124    1
   135    59    60    1
   136    59    64    1
   137    59   125    1
   138    60   126    1
   139    61    63    1
   140    61   127    1
   141    62    63    1
   142    62    65    1
   143    62   129    1
   144    63   130    1
   145    64   131    1
   146    64   132    1
   147    65   136    1
   148    65   137    1
