@<TRIPOS>MOLECULE
IMPHY000474
 38 41 0 0 0
SMALL
GASTEIGER

@<TRIPOS>ATOM
      1 C           5.0526    5.1665    0.0000 C.ar    1  UNL1        0.1879
      2 C           5.0526    4.1380    0.0000 C.ar    1  UNL1        0.1107
      3 C           4.1650    5.6853    0.0000 C.ar    1  UNL1        0.2069
      4 O           5.9462    5.6853    0.0000 O.2     1  UNL1       -0.4499
      5 C           4.1650    3.6253    0.0000 C.ar    1  UNL1        0.1506
      6 C           5.9462    3.6253    0.0000 C.ar    1  UNL1        0.2047
      7 C           3.2774    5.1665    0.0000 C.ar    1  UNL1        0.1785
      8 O           4.1350    6.6598    0.0000 O.3     1  UNL1       -0.4654
      9 C           6.8368    5.1665    0.0000 C.ar    1  UNL1        0.1516
     10 O           4.1920    2.8037    0.0000 O.3     1  UNL1       -0.4502
     11 C           3.2774    4.1410    0.0000 C.ar    1  UNL1        0.0773
     12 C           6.8368    4.1380    0.0000 C.ar    1  UNL1        0.0798
     13 O           5.9492    2.6537    0.0000 O.2     1  UNL1       -0.2862
     14 O           2.5278    5.6493    0.0000 O.3     1  UNL1       -0.4682
     15 C           3.5323    7.3675    0.0000 C.3     1  UNL1        0.2528
     16 C           7.7303    5.7603    0.0000 C.ar    1  UNL1        0.0718
     17 C           3.5053    2.3149    0.0000 C.3     1  UNL1        0.3218
     18 C           1.4933    5.6493    0.0000 C.3     1  UNL1        0.2526
     19 C           7.7243    6.8128    0.0000 C.ar    1  UNL1        0.1785
     20 C           8.6509    5.2355    0.0000 C.ar    1  UNL1        0.0096
     21 C           3.5233    1.3733    0.0000 C.3     1  UNL1        0.2542
     22 O           2.6837    2.7707    0.0000 O.3     1  UNL1       -0.3157
     23 C           8.6389    7.3495    0.0000 C.ar    1  UNL1        0.2112
     24 O           6.8248    7.4245    0.0000 O.3     1  UNL1       -0.4682
     25 C           9.5625    5.7693    0.0000 C.ar    1  UNL1        0.0455
     26 C           2.7227    0.8906    0.0000 C.3     1  UNL1        0.2211
     27 O           4.5099    1.0405    0.0000 O.3     1  UNL1       -0.2135
     28 C           1.8771    2.2819    0.0000 C.3     1  UNL1        0.1846
     29 C           9.5595    6.8278    0.0000 C.ar    1  UNL1        0.2323
     30 O           8.6449    8.4470    0.0000 O.3     1  UNL1       -0.4653
     31 C           6.8517    8.4140    0.0000 C.3     1  UNL1        0.2526
     32 C           1.8951    1.3404    0.0000 C.3     1  UNL1        0.2145
     33 O           2.7587    0.0000    0.0000 O.3     1  UNL1       -0.2173
     34 C           0.9745    2.8397    0.0000 C.3     1  UNL1        0.2142
     35 O          10.4950    7.3225    0.0000 O.3     1  UNL1       -0.2832
     36 C           9.2896    9.2086    0.0000 C.3     1  UNL1        0.2528
     37 O           1.1455    0.7406    0.0000 O.3     1  UNL1       -0.2176
     38 O           0.0000    2.8397    0.0000 O.3     1  UNL1       -0.2176
@<TRIPOS>BOND
     1     1     2   ar
     2     1     3   ar
     3     1     4   ar
     4     2     5   ar
     5     2     6   ar
     6     3     7   ar
     7     3     8    1
     8     4     9   ar
     9     5    10    1
    10     5    11   ar
    11     6    12   ar
    12     6    13    2
    13     7    11   ar
    14     7    14    1
    15     8    15    1
    16     9    12   ar
    17     9    16    1
    18    14    18    1
    19    16    19   ar
    20    16    20   ar
    21    17    10    1
    22    17    21    1
    23    17    22    1
    24    19    23   ar
    25    19    24    1
    26    20    25   ar
    27    21    26    1
    28    21    27    1
    29    22    28    1
    30    23    29   ar
    31    23    30    1
    32    24    31    1
    33    25    29   ar
    34    26    32    1
    35    26    33    1
    36    28    32    1
    37    28    34    1
    38    29    35    1
    39    30    36    1
    40    32    37    1
    41    34    38    1
