@<TRIPOS>MOLECULE
IMPHY012334
 37 36 0 0 0
SMALL
GASTEIGER

@<TRIPOS>ATOM
      1 SG          7.7331   -1.3450    0.0000 S.3     1  UNL1       -0.1759
      2 O           6.8671   -0.8450    0.0000 O.2     1  UNL1       -0.2758
      3 O           9.4651    1.6550    0.0000 O.2     1  UNL1       -0.2737
      4 O           2.5369    0.6550    0.0000 O.3     1  UNL1       -0.4795
      5 OXT         3.4030   -0.8450    0.0000 O.2     1  UNL1       -0.2493
      6 O          12.9292    0.6550    0.0000 O.3     1  UNL1       -0.4795
      7 OXT        12.0632   -0.8450    0.0000 O.2     1  UNL1       -0.2492
      8 N           7.7331    0.6550    0.0000 N.am    1  UNL1       -0.3033
      9 N           4.2690    1.6550    0.0000 N.3     1  UNL1       -0.3184
     10 N          10.3312    0.1550    0.0000 N.am    1  UNL1       -0.3033
     11 C           5.1350    0.1550    0.0000 C.3     1  UNL1       -0.0191
     12 C           6.0010    0.6550    0.0000 C.3     1  UNL1        0.0259
     13 CA          8.5991    0.1550    0.0000 C.3     1  UNL1        0.1081
     14 CA          4.2690    0.6550    0.0000 C.3     1  UNL1        0.1037
     15 C           6.8671    0.1550    0.0000 C.2     1  UNL1        0.2137
     16 CB          8.5991   -0.8450    0.0000 C.3     1  UNL1        0.0177
     17 C           9.4651    0.6550    0.0000 C.2     1  ACE1        0.2346
     18 C           3.4030    0.1550    0.0000 C.2     1  UNL1        0.3217
     19 CA         11.1972    0.6550    0.0000 C.3     1  UNL1        0.1089
     20 C          12.0632    0.1550    0.0000 C.2     1  UNL1        0.3221
     21 H           4.7365   -0.3199    0.0000 H       1  UNL1        0.0290
     22 H           5.5335   -0.3199    0.0000 H       1  UNL1        0.0290
     23 H           6.3996    1.1300    0.0000 H       1  UNL1        0.0359
     24 H           5.6025    1.1300    0.0000 H       1  UNL1        0.0359
     25 HA          8.5991    0.7750    0.0000 H       1  UNL1        0.0603
     26 HA          4.8059    0.9650    0.0000 H       1  UNL1        0.0574
     27 H           7.7331    1.2750    0.0000 H       1  UNL1        0.1495
     28 HB1         8.8112   -1.4276    0.0000 H       1  UNL1        0.0397
     29 HB2         9.2097   -0.7373    0.0000 H       1  UNL1        0.0397
     30 H1          3.7320    1.9650    0.0000 H       1  UNL1        0.1190
     31 H2          4.8059    1.9650    0.0000 H       1  UNL1        0.1190
     32 H          10.3312   -0.4650    0.0000 H       1  UNL1        0.1493
     33 HA1        11.5957    1.1300    0.0000 H       1  UNL1        0.0577
     34 HA2        10.7987    1.1300    0.0000 H       1  UNL1        0.0577
     35 HG          7.7331   -1.9650    0.0000 H       1  UNL1        0.1017
     36 H           2.0000    0.3450    0.0000 H       1  UNL1        0.2951
     37 H          13.4662    0.3450    0.0000 H       1  UNL1        0.2951
@<TRIPOS>BOND
     1     1    16    1
     2     1    35    1
     3     2    15    2
     4     3    17    2
     5     4    18    1
     6     4    36    1
     7     5    18    2
     8     6    20    1
     9     6    37    1
    10     7    20    2
    11    13     8    1
    12     8    15   am
    13     8    27    1
    14    14     9    1
    15     9    30    1
    16     9    31    1
    17    10    17   am
    18    10    19    1
    19    10    32    1
    20    11    12    1
    21    11    14    1
    22    11    21    1
    23    11    22    1
    24    12    15    1
    25    12    23    1
    26    12    24    1
    27    13    16    1
    28    13    17    1
    29    13    25    1
    30    14    18    1
    31    14    26    1
    32    16    28    1
    33    16    29    1
    34    19    20    1
    35    19    33    1
    36    19    34    1
