@<TRIPOS>MOLECULE
IMPHY004911
 74 73 0 0 0
SMALL
GASTEIGER

@<TRIPOS>ATOM
      1 O          11.5263   -0.9050    0.0000 O.3     1  UNL1       -0.3917
      2 O          13.2583   -0.9050    0.0000 O.3     1  UNL1       -0.3877
      3 O          22.7846    0.5950    0.0000 O.3     1  UNL1       -0.4806
      4 O          21.9186   -0.9050    0.0000 O.2     1  UNL1       -0.2510
      5 C           8.9282    0.5950    0.0000 C.3     1  UNL1       -0.0530
      6 C           9.7942    0.0950    0.0000 C.3     1  UNL1       -0.0507
      7 C           8.0622    0.0950    0.0000 C.3     1  UNL1       -0.0531
      8 C          10.6603    0.5950    0.0000 C.3     1  UNL1       -0.0268
      9 C           7.1962    0.5950    0.0000 C.3     1  UNL1       -0.0531
     10 C          11.5263    0.0950    0.0000 C.3     1  UNL1        0.0579
     11 C           6.3301    0.0950    0.0000 C.3     1  UNL1       -0.0531
     12 C           5.4641    0.5950    0.0000 C.3     1  UNL1       -0.0531
     13 C          12.3923    0.5950    0.0000 C.3     1  UNL1        0.0029
     14 C           4.5981    0.0950    0.0000 C.3     1  UNL1       -0.0531
     15 C          13.2583    0.0950    0.0000 C.3     1  UNL1        0.0757
     16 C           3.7320    0.5950    0.0000 C.3     1  UNL1       -0.0533
     17 C          17.5885    0.5950    0.0000 C.3     1  UNL1       -0.0528
     18 C          16.7224    0.0950    0.0000 C.3     1  UNL1       -0.0496
     19 C          18.4545    0.0950    0.0000 C.3     1  UNL1       -0.0530
     20 C          14.1244    0.5950    0.0000 C.2     1  UNL1       -0.0597
     21 C          15.8564    0.5950    0.0000 C.3     1  UNL1       -0.0347
     22 C           2.8660    0.0950    0.0000 C.3     1  UNL1       -0.0559
     23 C          19.3205    0.5950    0.0000 C.3     1  UNL1       -0.0526
     24 C          14.9904    0.0950    0.0000 C.2     1  UNL1       -0.0855
     25 C          20.1865    0.0950    0.0000 C.3     1  UNL1       -0.0430
     26 C           2.0000    0.5950    0.0000 C.3     1  UNL1       -0.0653
     27 C          21.0526    0.5950    0.0000 C.3     1  UNL1        0.0448
     28 C          21.9186    0.0950    0.0000 C.2     1  UNL1        0.3047
     29 H           9.3267    1.0700    0.0000 H       1  UNL1        0.0265
     30 H           8.5297    1.0700    0.0000 H       1  UNL1        0.0265
     31 H           9.3957   -0.3799    0.0000 H       1  UNL1        0.0266
     32 H          10.1928   -0.3799    0.0000 H       1  UNL1        0.0266
     33 H           7.6636   -0.3799    0.0000 H       1  UNL1        0.0265
     34 H           8.4607   -0.3799    0.0000 H       1  UNL1        0.0265
     35 H          11.0588    1.0700    0.0000 H       1  UNL1        0.0290
     36 H          10.2617    1.0700    0.0000 H       1  UNL1        0.0290
     37 H           7.5947    1.0700    0.0000 H       1  UNL1        0.0265
     38 H           6.7976    1.0700    0.0000 H       1  UNL1        0.0265
     39 H          12.0632   -0.2150    0.0000 H       1  UNL1        0.0594
     40 H           5.9316   -0.3799    0.0000 H       1  UNL1        0.0265
     41 H           6.7287   -0.3799    0.0000 H       1  UNL1        0.0265
     42 H           5.8626    1.0700    0.0000 H       1  UNL1        0.0265
     43 H           5.0656    1.0700    0.0000 H       1  UNL1        0.0265
     44 H          12.7908    1.0700    0.0000 H       1  UNL1        0.0318
     45 H          11.9938    1.0700    0.0000 H       1  UNL1        0.0318
     46 H           4.1996   -0.3799    0.0000 H       1  UNL1        0.0265
     47 H           4.9966   -0.3799    0.0000 H       1  UNL1        0.0265
     48 H          13.7953   -0.2150    0.0000 H       1  UNL1        0.0638
     49 H           4.1306    1.0700    0.0000 H       1  UNL1        0.0265
     50 H           3.3335    1.0700    0.0000 H       1  UNL1        0.0265
     51 H          17.9870    1.0700    0.0000 H       1  UNL1        0.0265
     52 H          17.1899    1.0700    0.0000 H       1  UNL1        0.0265
     53 H          16.3239   -0.3799    0.0000 H       1  UNL1        0.0268
     54 H          17.1210   -0.3799    0.0000 H       1  UNL1        0.0268
     55 H          18.0560   -0.3799    0.0000 H       1  UNL1        0.0265
     56 H          18.8530   -0.3799    0.0000 H       1  UNL1        0.0265
     57 H          14.1244    1.2150    0.0000 H       1  UNL1        0.0594
     58 H          16.2549    1.0700    0.0000 H       1  UNL1        0.0307
     59 H          15.4579    1.0700    0.0000 H       1  UNL1        0.0307
     60 H           2.4675   -0.3799    0.0000 H       1  UNL1        0.0263
     61 H           3.2646   -0.3799    0.0000 H       1  UNL1        0.0263
     62 H          19.7190    1.0700    0.0000 H       1  UNL1        0.0265
     63 H          18.9220    1.0700    0.0000 H       1  UNL1        0.0265
     64 H          10.9893   -1.2150    0.0000 H       1  UNL1        0.2098
     65 H          14.9904   -0.5250    0.0000 H       1  UNL1        0.0570
     66 H          19.7880   -0.3799    0.0000 H       1  UNL1        0.0270
     67 H          20.5851   -0.3799    0.0000 H       1  UNL1        0.0270
     68 H          13.7953   -1.2150    0.0000 H       1  UNL1        0.2102
     69 H           2.3100    1.1319    0.0000 H       1  UNL1        0.0230
     70 H           1.4631    0.9050    0.0000 H       1  UNL1        0.0230
     71 H           1.6900    0.0581    0.0000 H       1  UNL1        0.0230
     72 H          21.4511    1.0700    0.0000 H       1  UNL1        0.0377
     73 H          20.6540    1.0700    0.0000 H       1  UNL1        0.0377
     74 H          23.3215    0.2850    0.0000 H       1  UNL1        0.2951
@<TRIPOS>BOND
     1     1    10    1
     2     1    64    1
     3     2    15    1
     4     2    68    1
     5     3    28    1
     6     3    74    1
     7     4    28    2
     8     5     6    1
     9     5     7    1
    10     5    29    1
    11     5    30    1
    12     6     8    1
    13     6    31    1
    14     6    32    1
    15     7     9    1
    16     7    33    1
    17     7    34    1
    18     8    10    1
    19     8    35    1
    20     8    36    1
    21     9    11    1
    22     9    37    1
    23     9    38    1
    24    10    13    1
    25    10    39    1
    26    11    12    1
    27    11    40    1
    28    11    41    1
    29    12    14    1
    30    12    42    1
    31    12    43    1
    32    13    15    1
    33    13    44    1
    34    13    45    1
    35    14    16    1
    36    14    46    1
    37    14    47    1
    38    15    20    1
    39    15    48    1
    40    16    22    1
    41    16    49    1
    42    16    50    1
    43    17    18    1
    44    17    19    1
    45    17    51    1
    46    17    52    1
    47    18    21    1
    48    18    53    1
    49    18    54    1
    50    19    23    1
    51    19    55    1
    52    19    56    1
    53    20    24    2
    54    20    57    1
    55    21    24    1
    56    21    58    1
    57    21    59    1
    58    22    26    1
    59    22    60    1
    60    22    61    1
    61    23    25    1
    62    23    62    1
    63    23    63    1
    64    24    65    1
    65    25    27    1
    66    25    66    1
    67    25    67    1
    68    26    69    1
    69    26    70    1
    70    26    71    1
    71    27    28    1
    72    27    72    1
    73    27    73    1
