@<TRIPOS>MOLECULE
IMPHY016617
 27 27 0 0 0
SMALL
GASTEIGER

@<TRIPOS>ATOM
      1 O           3.7601   -2.4920    0.0000 O.3     1  UNL1       -0.4614
      2 O           5.5202   -2.2132    0.0000 O.2     1  UNL1       -0.2505
      3 C           4.2601   -0.9531    0.0000 C.3     1  UNL1        0.0598
      4 C           3.2601   -0.9531    0.0000 C.3     1  UNL1       -0.0030
      5 C           4.8479   -0.1441    0.0000 C.3     1  UNL1       -0.0400
      6 C           2.9511   -1.9042    0.0000 C.3     1  UNL1        0.1011
      7 C           4.4411    0.7694    0.0000 C.3     1  UNL1       -0.0526
      8 C           4.5691   -1.9042    0.0000 C.2     1  UNL1        0.3106
      9 C           2.0000   -2.2132    0.0000 C.3     1  UNL1       -0.0277
     10 C           5.0289    1.5784    0.0000 C.3     1  UNL1       -0.0559
     11 C           4.6222    2.4920    0.0000 C.3     1  UNL1       -0.0653
     12 H           4.8724   -1.0501    0.0000 H       1  UNL1        0.0414
     13 H           3.3249   -0.3365    0.0000 H       1  UNL1        0.0309
     14 H           2.6536   -0.8242    0.0000 H       1  UNL1        0.0309
     15 H           5.2786   -0.5901    0.0000 H       1  UNL1        0.0273
     16 H           5.3619    0.2026    0.0000 H       1  UNL1        0.0273
     17 H           2.8541   -2.5166    0.0000 H       1  UNL1        0.0731
     18 H           4.0104    1.2154    0.0000 H       1  UNL1        0.0265
     19 H           3.9271    0.4227    0.0000 H       1  UNL1        0.0265
     20 H           1.8084   -1.6236    0.0000 H       1  UNL1        0.0265
     21 H           1.4103   -2.4048    0.0000 H       1  UNL1        0.0265
     22 H           2.1916   -2.8029    0.0000 H       1  UNL1        0.0265
     23 H           5.4596    1.1324    0.0000 H       1  UNL1        0.0263
     24 H           5.5429    1.9251    0.0000 H       1  UNL1        0.0263
     25 H           5.1886    2.7442    0.0000 H       1  UNL1        0.0230
     26 H           4.3700    3.0584    0.0000 H       1  UNL1        0.0230
     27 H           4.0558    2.2398    0.0000 H       1  UNL1        0.0230
@<TRIPOS>BOND
     1     1     6    1
     2     1     8    1
     3     2     8    2
     4     3     4    1
     5     3     5    1
     6     3     8    1
     7     3    12    1
     8     4     6    1
     9     4    13    1
    10     4    14    1
    11     5     7    1
    12     5    15    1
    13     5    16    1
    14     6     9    1
    15     6    17    1
    16     7    10    1
    17     7    18    1
    18     7    19    1
    19     9    20    1
    20     9    21    1
    21     9    22    1
    22    10    11    1
    23    10    23    1
    24    10    24    1
    25    11    25    1
    26    11    26    1
    27    11    27    1
