@<TRIPOS>MOLECULE
IMPHY001624
 58 61 0 0 0
SMALL
GASTEIGER

@<TRIPOS>ATOM
      1 O           7.8003    0.3450    0.0000 O.3     1  UNL1       -0.4791
      2 O           7.8003    4.3450    0.0000 O.3     1  UNL1       -0.3888
      3 O           9.5323    3.3450    0.0000 O.3     1  UNL1       -0.3865
      4 O           9.5323    1.3450    0.0000 O.3     1  UNL1       -0.3855
      5 O           6.0682    4.3450    0.0000 O.3     1  UNL1       -0.3946
      6 O           6.0682   -1.6550    0.0000 O.2     1  UNL1       -0.4507
      7 O           6.0682    1.3450    0.0000 O.2     1  UNL1       -0.2830
      8 O           4.3198    1.3796    0.0000 O.3     1  UNL1       -0.5058
      9 O           2.5381   -1.6792    0.0000 O.3     1  UNL1       -0.5065
     10 O           8.6663   -4.1550    0.0000 O.3     1  UNL1       -0.4914
     11 O          10.3984   -3.1550    0.0000 O.3     1  UNL1       -0.5033
     12 C           6.9343    2.8450    0.0000 C.3     1  UNL1        0.0141
     13 C           7.8003    3.3450    0.0000 C.3     1  UNL1        0.0886
     14 C           6.9343    1.8450    0.0000 C.3     1  UNL1       -0.0058
     15 C           7.8003    1.3450    0.0000 C.3     1  UNL1        0.1292
     16 C           8.6663    2.8450    0.0000 C.3     1  UNL1        0.1106
     17 C           8.6663    1.8450    0.0000 C.3     1  UNL1        0.1201
     18 C           6.0682    3.3450    0.0000 C.3     1  UNL1        0.0496
     19 C           6.9343   -0.1550    0.0000 C.ar    1  UNL1        0.2113
     20 C           6.9343   -1.1550    0.0000 C.ar    1  UNL1        0.1809
     21 C           6.0682    0.3450    0.0000 C.ar    1  UNL1        0.2381
     22 C           5.2022   -0.1550    0.0000 C.ar    1  UNL1        0.1092
     23 C           7.8003   -1.6550    0.0000 C.ar    1  UNL1        0.0247
     24 C           5.2022   -1.1550    0.0000 C.ar    1  UNL1        0.1465
     25 C           4.3083    0.3797    0.0000 C.ar    1  UNL1        0.1348
     26 C           4.3083   -1.6897    0.0000 C.ar    1  UNL1        0.0231
     27 C           7.8003   -2.6550    0.0000 C.ar    1  UNL1       -0.0055
     28 C           8.6663   -1.1550    0.0000 C.ar    1  UNL1       -0.0473
     29 C           3.4022   -0.1342    0.0000 C.ar    1  UNL1        0.0223
     30 C           3.4022   -1.1758    0.0000 C.ar    1  UNL1        0.1239
     31 C           8.6663   -3.1550    0.0000 C.ar    1  UNL1        0.1619
     32 C           9.5323   -1.6550    0.0000 C.ar    1  UNL1       -0.0159
     33 C           9.5323   -2.6550    0.0000 C.ar    1  UNL1        0.1585
     34 C           7.8003   -4.6550    0.0000 C.3     1  UNL1        0.0790
     35 H           6.9343    3.4650    0.0000 H       1  UNL1        0.0350
     36 H           8.3372    3.6550    0.0000 H       1  UNL1        0.0623
     37 H           6.3237    1.9527    0.0000 H       1  UNL1        0.0306
     38 H           6.7222    1.2624    0.0000 H       1  UNL1        0.0306
     39 H           8.3372    1.0350    0.0000 H       1  UNL1        0.0760
     40 H           9.2033    2.5350    0.0000 H       1  UNL1        0.0646
     41 H           9.2033    2.1550    0.0000 H       1  UNL1        0.0657
     42 H           5.4577    3.4527    0.0000 H       1  UNL1        0.0561
     43 H           5.8562    2.7624    0.0000 H       1  UNL1        0.0561
     44 H           8.3372    4.6550    0.0000 H       1  UNL1        0.2099
     45 H           9.5323    3.9650    0.0000 H       1  UNL1        0.2100
     46 H          10.0693    1.6550    0.0000 H       1  UNL1        0.2101
     47 H           5.5313    4.6550    0.0000 H       1  UNL1        0.2094
     48 H           4.3154   -2.3096    0.0000 H       1  UNL1        0.0691
     49 H           7.2634   -2.9650    0.0000 H       1  UNL1        0.0662
     50 H           8.6663   -0.5350    0.0000 H       1  UNL1        0.0626
     51 H           2.8665    0.1779    0.0000 H       1  UNL1        0.0691
     52 H          10.0693   -1.3450    0.0000 H       1  UNL1        0.0655
     53 H           3.7865    1.6958    0.0000 H       1  UNL1        0.2922
     54 H           2.0000   -1.3712    0.0000 H       1  UNL1        0.2921
     55 H          10.9353   -2.8450    0.0000 H       1  UNL1        0.2923
     56 H           7.4903   -4.1181    0.0000 H       1  UNL1        0.0660
     57 H           7.2634   -4.9650    0.0000 H       1  UNL1        0.0660
     58 H           8.1103   -5.1919    0.0000 H       1  UNL1        0.0660
@<TRIPOS>BOND
     1    15     1    1
     2     1    19    1
     3    13     2    1
     4     2    44    1
     5    16     3    1
     6     3    45    1
     7    17     4    1
     8     4    46    1
     9     5    18    1
    10     5    47    1
    11     6    20   ar
    12     6    24   ar
    13     7    21    2
    14     8    25    1
    15     8    53    1
    16     9    30    1
    17     9    54    1
    18    10    31    1
    19    10    34    1
    20    11    33    1
    21    11    55    1
    22    12    13    1
    23    12    14    1
    24    12    18    1
    25    12    35    1
    26    13    16    1
    27    13    36    1
    28    14    15    1
    29    14    37    1
    30    14    38    1
    31    15    17    1
    32    15    39    1
    33    16    17    1
    34    16    40    1
    35    17    41    1
    36    18    42    1
    37    18    43    1
    38    19    20   ar
    39    19    21   ar
    40    20    23    1
    41    21    22   ar
    42    22    24   ar
    43    22    25   ar
    44    23    27   ar
    45    23    28   ar
    46    24    26   ar
    47    25    29   ar
    48    26    30   ar
    49    26    48    1
    50    27    31   ar
    51    27    49    1
    52    28    32   ar
    53    28    50    1
    54    29    30   ar
    55    29    51    1
    56    31    33   ar
    57    32    33   ar
    58    32    52    1
    59    34    56    1
    60    34    57    1
    61    34    58    1
