@<TRIPOS>MOLECULE
IMPHY013374
 48 50 0 0 0
SMALL
GASTEIGER

@<TRIPOS>ATOM
      1 O           6.3580   -0.1897    0.0000 O.3     1  UNL1       -0.4826
      2 O           2.8660   -0.1550    0.0000 O.3     1  UNL1       -0.4946
      3 O           6.3465    2.8796    0.0000 O.2     1  UNL1       -0.2917
      4 O           4.5981    2.8450    0.0000 O.3     1  UNL1       -0.5058
      5 O          10.7205   -1.6892    0.0000 O.3     1  UNL1       -0.5068
      6 C           7.2641    0.3242    0.0000 C.3     1  UNL1        0.1322
      7 C           7.2641    1.3658    0.0000 C.3     1  UNL1        0.0520
      8 C           5.4641    0.3450    0.0000 C.ar    1  UNL1        0.1423
      9 C           5.4641    1.3450    0.0000 C.ar    1  UNL1        0.1009
     10 C           4.5981   -0.1550    0.0000 C.ar    1  UNL1        0.0405
     11 C           6.3580    1.8797    0.0000 C.2     1  UNL1        0.1740
     12 C           8.1282   -0.1792    0.0000 C.ar    1  UNL1       -0.0067
     13 C           4.5981   -1.1550    0.0000 C.3     1  UNL1       -0.0023
     14 C           4.5981    1.8450    0.0000 C.ar    1  UNL1        0.1343
     15 C           3.7320    0.3450    0.0000 C.ar    1  UNL1        0.1305
     16 C           3.7320    1.3450    0.0000 C.ar    1  UNL1        0.0227
     17 C           8.9962    0.3175    0.0000 C.ar    1  UNL1       -0.0516
     18 C           8.1244   -1.1791    0.0000 C.ar    1  UNL1       -0.0516
     19 C           3.7320   -1.6550    0.0000 C.2     1  UNL1       -0.0807
     20 C           9.8602   -0.1858    0.0000 C.ar    1  UNL1       -0.0198
     21 C           8.9884   -1.6825    0.0000 C.ar    1  UNL1       -0.0198
     22 C           3.7320   -2.6550    0.0000 C.2     1  UNL1       -0.0793
     23 C           9.8564   -1.1858    0.0000 C.ar    1  UNL1        0.1169
     24 C           2.8660   -3.1550    0.0000 C.3     1  UNL1       -0.0440
     25 C           4.5981   -3.1550    0.0000 C.3     1  UNL1       -0.0440
     26 C           2.0000    0.3450    0.0000 C.3     1  UNL1        0.0788
     27 H           7.2605   -0.2958    0.0000 H       1  UNL1        0.0789
     28 H           7.8750    1.2597    0.0000 H       1  UNL1        0.0385
     29 H           7.4732    1.9495    0.0000 H       1  UNL1        0.0385
     30 H           4.8101   -1.7376    0.0000 H       1  UNL1        0.0358
     31 H           5.2087   -1.0473    0.0000 H       1  UNL1        0.0358
     32 H           3.1951    1.6550    0.0000 H       1  UNL1        0.0691
     33 H           8.9985    0.9375    0.0000 H       1  UNL1        0.0623
     34 H           7.5862   -1.4871    0.0000 H       1  UNL1        0.0623
     35 H           3.1951   -1.3450    0.0000 H       1  UNL1        0.0575
     36 H          10.3984    0.1221    0.0000 H       1  UNL1        0.0654
     37 H           8.9860   -2.3025    0.0000 H       1  UNL1        0.0654
     38 H           4.0611    3.1550    0.0000 H       1  UNL1        0.2922
     39 H           2.5560   -2.6181    0.0000 H       1  UNL1        0.0274
     40 H           2.3291   -3.4650    0.0000 H       1  UNL1        0.0274
     41 H           3.1760   -3.6919    0.0000 H       1  UNL1        0.0274
     42 H           4.2881   -3.6919    0.0000 H       1  UNL1        0.0274
     43 H           5.1350   -3.4650    0.0000 H       1  UNL1        0.0274
     44 H           4.9081   -2.6181    0.0000 H       1  UNL1        0.0274
     45 H           2.3100    0.8819    0.0000 H       1  UNL1        0.0660
     46 H           1.4631    0.6550    0.0000 H       1  UNL1        0.0660
     47 H           1.6900   -0.1919    0.0000 H       1  UNL1        0.0660
     48 H          11.2586   -1.3812    0.0000 H       1  UNL1        0.2921
@<TRIPOS>BOND
     1     1     6    1
     2     1     8    1
     3     2    15    1
     4     2    26    1
     5     3    11    2
     6     4    14    1
     7     4    38    1
     8     5    23    1
     9     5    48    1
    10     6     7    1
    11     6    12    1
    12     6    27    1
    13     7    11    1
    14     7    28    1
    15     7    29    1
    16     8     9   ar
    17     8    10   ar
    18     9    11    1
    19     9    14   ar
    20    10    13    1
    21    10    15   ar
    22    12    17   ar
    23    12    18   ar
    24    13    19    1
    25    13    30    1
    26    13    31    1
    27    14    16   ar
    28    15    16   ar
    29    16    32    1
    30    17    20   ar
    31    17    33    1
    32    18    21   ar
    33    18    34    1
    34    19    22    2
    35    19    35    1
    36    20    23   ar
    37    20    36    1
    38    21    23   ar
    39    21    37    1
    40    22    24    1
    41    22    25    1
    42    24    39    1
    43    24    40    1
    44    24    41    1
    45    25    42    1
    46    25    43    1
    47    25    44    1
    48    26    45    1
    49    26    46    1
    50    26    47    1
