@<TRIPOS>MOLECULE
IMPHY014612
 38 40 0 0 0
SMALL
GASTEIGER

@<TRIPOS>ATOM
      1 O           6.4783   -0.6466    0.0000 O.3     1  UNL1       -0.4574
      2 O           2.9176   -1.8765    0.0000 O.3     1  UNL1       -0.3909
      3 O           8.0619    0.1581    0.0000 O.2     1  UNL1       -0.2453
      4 C           3.8000   -0.3419    0.0000 C.3     1  UNL1        0.0185
      5 C           4.6660   -0.8419    0.0000 C.3     1  UNL1       -0.0036
      6 C           3.8000    0.6581    0.0000 C.2     1  UNL1       -0.0614
      7 C           5.5321   -0.3419    0.0000 C.3     1  UNL1        0.1115
      8 C           5.5321    0.6581    0.0000 C.3     1  UNL1        0.0312
      9 C           2.9061   -0.8766    0.0000 C.3     1  UNL1        0.0647
     10 C           4.6660    1.1581    0.0000 C.3     1  UNL1       -0.0205
     11 C           2.0000   -0.3627    0.0000 C.3     1  UNL1       -0.0224
     12 C           2.9061    1.1928    0.0000 C.2     1  UNL1       -0.0727
     13 C           3.8000   -1.3419    0.0000 C.3     1  UNL1       -0.0533
     14 C           2.0000    0.6789    0.0000 C.3     1  UNL1       -0.0294
     15 C           6.4783    0.9628    0.0000 C.2     1  UNL1        0.0364
     16 C           7.0619    0.1581    0.0000 C.2     1  UNL1        0.3353
     17 C           2.9176    2.1927    0.0000 C.3     1  UNL1       -0.0435
     18 C           6.7889    1.9134    0.0000 C.2     1  UNL1       -0.0883
     19 H           4.2675   -1.3168    0.0000 H       1  UNL1        0.0310
     20 H           5.0646   -1.3168    0.0000 H       1  UNL1        0.0310
     21 H           5.5977   -0.9584    0.0000 H       1  UNL1        0.0740
     22 H           5.5977    1.2746    0.0000 H       1  UNL1        0.0390
     23 H           2.3721   -1.1917    0.0000 H       1  UNL1        0.0602
     24 H           5.0646    1.6330    0.0000 H       1  UNL1        0.0317
     25 H           4.2675    1.6330    0.0000 H       1  UNL1        0.0317
     26 H           1.3891   -0.2566    0.0000 H       1  UNL1        0.0293
     27 H           1.7909   -0.9464    0.0000 H       1  UNL1        0.0293
     28 H           3.1800   -1.3419    0.0000 H       1  UNL1        0.0239
     29 H           3.8000   -1.9619    0.0000 H       1  UNL1        0.0239
     30 H           4.4200   -1.3419    0.0000 H       1  UNL1        0.0239
     31 H           1.7909    1.2626    0.0000 H       1  UNL1        0.0311
     32 H           1.3891    0.5728    0.0000 H       1  UNL1        0.0311
     33 H           3.5376    2.1855    0.0000 H       1  UNL1        0.0274
     34 H           2.9248    2.8126    0.0000 H       1  UNL1        0.0274
     35 H           2.2977    2.1999    0.0000 H       1  UNL1        0.0274
     36 H           2.3843   -2.1927    0.0000 H       1  UNL1        0.2098
     37 H           7.3956    2.0412    0.0000 H       1  UNL1        0.0540
     38 H           6.3749    2.3748    0.0000 H       1  UNL1        0.0540
@<TRIPOS>BOND
     1     1     7    1
     2     1    16    1
     3     9     2    1
     4     2    36    1
     5     3    16    2
     6     4     5    1
     7     4     6    1
     8     4     9    1
     9     4    13    1
    10     5     7    1
    11     5    19    1
    12     5    20    1
    13     6    10    1
    14     6    12    2
    15     7     8    1
    16     7    21    1
    17     8    10    1
    18     8    15    1
    19     8    22    1
    20     9    11    1
    21     9    23    1
    22    10    24    1
    23    10    25    1
    24    11    14    1
    25    11    26    1
    26    11    27    1
    27    12    14    1
    28    12    17    1
    29    13    28    1
    30    13    29    1
    31    13    30    1
    32    14    31    1
    33    14    32    1
    34    15    16    1
    35    15    18    2
    36    17    33    1
    37    17    34    1
    38    17    35    1
    39    18    37    1
    40    18    38    1
