@<TRIPOS>MOLECULE
IMPHY000406
 25 26 0 0 0
SMALL
GASTEIGER

@<TRIPOS>ATOM
      1 O           3.5698   -1.2267    0.0000 O.3     1  UNL1       -0.4612
      2 O           2.0000   -0.4947    0.0000 O.2     1  UNL1       -0.2512
      3 C           5.3651    0.2716    0.0000 C.3     1  UNL1       -0.0036
      4 C           5.6239    1.2376    0.0000 C.3     1  UNL1       -0.0373
      5 C           4.8873    2.2202    0.0000 C.3     1  UNL1       -0.0439
      6 C           3.9924   -0.3204    0.0000 C.3     1  UNL1        0.1061
      7 C           3.6504    0.6193    0.0000 C.3     1  UNL1       -0.0126
      8 C           6.7640   -0.2372    0.0000 C.3     1  UNL1       -0.0466
      9 C           7.0228    0.7287    0.0000 C.3     1  UNL1       -0.0497
     10 C           2.5736   -1.3139    0.0000 C.2     1  UNL1        0.3042
     11 C           2.1510   -2.2202    0.0000 C.3     1  UNL1        0.0332
     12 H           5.3832   -0.3481    0.0000 H       1  UNL1        0.0336
     13 H           5.6099    0.6177    0.0000 H       1  UNL1        0.0302
     14 H           5.2051    2.7525    0.0000 H       1  UNL1        0.0272
     15 H           4.2742    2.3121    0.0000 H       1  UNL1        0.0272
     16 H           4.4244   -0.7651    0.0000 H       1  UNL1        0.0736
     17 H           3.4561    1.2081    0.0000 H       1  UNL1        0.0304
     18 H           3.0646    0.4161    0.0000 H       1  UNL1        0.0304
     19 H           6.5691   -0.8258    0.0000 H       1  UNL1        0.0269
     20 H           7.3580   -0.4150    0.0000 H       1  UNL1        0.0269
     21 H           7.6168    0.5510    0.0000 H       1  UNL1        0.0268
     22 H           7.2178    1.3173    0.0000 H       1  UNL1        0.0268
     23 H           1.5890   -1.9581    0.0000 H       1  UNL1        0.0342
     24 H           1.8889   -2.7821    0.0000 H       1  UNL1        0.0342
     25 H           2.7129   -2.4822    0.0000 H       1  UNL1        0.0342
@<TRIPOS>BOND
     1     1     6    1
     2     1    10    1
     3     2    10    2
     4     3     5    1
     5     3     6    1
     6     3     8    1
     7     3    12    1
     8     4     5    1
     9     4     7    1
    10     4     9    1
    11     4    13    1
    12     5    14    1
    13     5    15    1
    14     6     7    1
    15     6    16    1
    16     7    17    1
    17     7    18    1
    18     8     9    1
    19     8    19    1
    20     8    20    1
    21     9    21    1
    22     9    22    1
    23    10    11    1
    24    11    23    1
    25    11    24    1
    26    11    25    1
