@<TRIPOS>MOLECULE
IMPHY016817
 53 54 0 0 0
SMALL
GASTEIGER

@<TRIPOS>ATOM
      1 O           2.8660    1.5000    0.0000 O.3     1  UNL1       -0.5062
      2 C           4.5981    2.5000    0.0000 C.3     1  UNL1       -0.0092
      3 C           6.3301   -0.5000    0.0000 C.3     1  UNL1       -0.0127
      4 C           4.5981    1.5000    0.0000 C.ar    1  UNL1       -0.0000
      5 C           5.4641   -0.0000    0.0000 C.ar    1  UNL1       -0.0412
      6 C           3.7320    0.0000    0.0000 C.ar    1  UNL1        0.0017
      7 C           5.4641    1.0000    0.0000 C.ar    1  UNL1       -0.0509
      8 C           3.7320    1.0000    0.0000 C.ar    1  UNL1        0.1243
      9 C           4.5981   -0.5000    0.0000 C.ar    1  UNL1       -0.0508
     10 C           2.8660   -0.5000    0.0000 C.3     1  UNL1        0.0099
     11 C           4.5981    3.5000    0.0000 C.3     1  UNL1       -0.0559
     12 C           5.5981    2.5000    0.0000 C.3     1  UNL1       -0.0559
     13 C           3.5981    2.5000    0.0000 C.3     1  UNL1       -0.0559
     14 C           7.1962   -1.0000    0.0000 C.3     1  UNL1       -0.0560
     15 C           6.8301    0.3660    0.0000 C.3     1  UNL1       -0.0560
     16 C           5.8301   -1.3660    0.0000 C.3     1  UNL1       -0.0560
     17 C           2.8660   -1.5000    0.0000 C.ar    1  UNL1       -0.0401
     18 C           2.0000    0.0000    0.0000 C.3     1  UNL1       -0.0542
     19 C           2.0000   -2.0000    0.0000 C.ar    1  UNL1       -0.0580
     20 C           3.7320   -2.0000    0.0000 C.ar    1  UNL1       -0.0580
     21 C           2.0000   -3.0000    0.0000 C.ar    1  UNL1       -0.0615
     22 C           3.7320   -3.0000    0.0000 C.ar    1  UNL1       -0.0615
     23 C           2.8660   -3.5000    0.0000 C.ar    1  UNL1       -0.0617
     24 H           6.0010    1.3100    0.0000 H       1  UNL1        0.0624
     25 H           4.5981   -1.1200    0.0000 H       1  UNL1        0.0624
     26 H           2.8660    0.1200    0.0000 H       1  UNL1        0.0396
     27 H           5.2181    3.5000    0.0000 H       1  UNL1        0.0238
     28 H           4.5981    4.1200    0.0000 H       1  UNL1        0.0238
     29 H           3.9781    3.5000    0.0000 H       1  UNL1        0.0238
     30 H           5.5981    1.8800    0.0000 H       1  UNL1        0.0238
     31 H           6.2181    2.5000    0.0000 H       1  UNL1        0.0238
     32 H           5.5981    3.1200    0.0000 H       1  UNL1        0.0238
     33 H           3.5981    3.1200    0.0000 H       1  UNL1        0.0238
     34 H           2.9781    2.5000    0.0000 H       1  UNL1        0.0238
     35 H           3.5981    1.8800    0.0000 H       1  UNL1        0.0238
     36 H           6.8862   -1.5369    0.0000 H       1  UNL1        0.0238
     37 H           7.7331   -1.3100    0.0000 H       1  UNL1        0.0238
     38 H           7.5062   -0.4631    0.0000 H       1  UNL1        0.0238
     39 H           7.3671    0.0560    0.0000 H       1  UNL1        0.0238
     40 H           7.1401    0.9030    0.0000 H       1  UNL1        0.0238
     41 H           6.2932    0.6760    0.0000 H       1  UNL1        0.0238
     42 H           5.2932   -1.0560    0.0000 H       1  UNL1        0.0238
     43 H           5.5201   -1.9030    0.0000 H       1  UNL1        0.0238
     44 H           6.3671   -1.6760    0.0000 H       1  UNL1        0.0238
     45 H           2.3100    0.5369    0.0000 H       1  UNL1        0.0239
     46 H           1.4631    0.3100    0.0000 H       1  UNL1        0.0239
     47 H           1.6900   -0.5369    0.0000 H       1  UNL1        0.0239
     48 H           2.3291    1.1900    0.0000 H       1  UNL1        0.2922
     49 H           1.4631   -1.6900    0.0000 H       1  UNL1        0.0620
     50 H           4.2690   -1.6900    0.0000 H       1  UNL1        0.0620
     51 H           1.4631   -3.3100    0.0000 H       1  UNL1        0.0618
     52 H           4.2690   -3.3100    0.0000 H       1  UNL1        0.0618
     53 H           2.8660   -4.1200    0.0000 H       1  UNL1        0.0618
@<TRIPOS>BOND
     1     1     8    1
     2     1    48    1
     3     2     4    1
     4     2    11    1
     5     2    12    1
     6     2    13    1
     7     3     5    1
     8     3    14    1
     9     3    15    1
    10     3    16    1
    11     4     7   ar
    12     4     8   ar
    13     5     7   ar
    14     5     9   ar
    15     6     8   ar
    16     6     9   ar
    17     6    10    1
    18     7    24    1
    19     9    25    1
    20    10    17    1
    21    10    18    1
    22    10    26    1
    23    11    27    1
    24    11    28    1
    25    11    29    1
    26    12    30    1
    27    12    31    1
    28    12    32    1
    29    13    33    1
    30    13    34    1
    31    13    35    1
    32    14    36    1
    33    14    37    1
    34    14    38    1
    35    15    39    1
    36    15    40    1
    37    15    41    1
    38    16    42    1
    39    16    43    1
    40    16    44    1
    41    17    19   ar
    42    17    20   ar
    43    18    45    1
    44    18    46    1
    45    18    47    1
    46    19    21   ar
    47    19    49    1
    48    20    22   ar
    49    20    50    1
    50    21    23   ar
    51    21    51    1
    52    22    23   ar
    53    22    52    1
    54    23    53    1
