@<TRIPOS>MOLECULE
IMPHY014143
 63 66 0 0 0
SMALL
GASTEIGER

@<TRIPOS>ATOM
      1 O           3.6437   -1.7966    0.0000 O.3     1  UNL1       -0.4570
      2 O           3.4259    1.2716    0.0000 O.3     1  UNL1       -0.3870
      3 O           5.3514    3.3763    0.0000 O.3     1  UNL1       -0.3797
      4 O           4.6304   -3.2202    0.0000 O.2     1  UNL1       -0.2505
      5 O           4.5278    4.3595    0.0000 O.2     1  UNL1       -0.2893
      6 C           5.3217   -0.6336    0.0000 C.3     1  UNL1        0.0172
      7 C           4.4656   -1.2270    0.0000 C.3     1  UNL1        0.1233
      8 C           5.4078   -1.6721    0.0000 C.3     1  UNL1        0.0124
      9 C           5.2279    0.4038    0.0000 C.3     1  UNL1        0.0142
     10 C           4.3269    0.8377    0.0000 C.3     1  UNL1        0.0846
     11 C           3.5271   -0.7750    0.0000 C.3     1  UNL1       -0.0068
     12 C           3.4573    0.2643    0.0000 C.3     1  UNL1       -0.0101
     13 C           6.4044   -1.5897    0.0000 C.3     1  UNL1       -0.0558
     14 C           4.9809   -2.5764    0.0000 C.3     1  UNL1       -0.0558
     15 C           4.1044    1.8126    0.0000 C.3     1  UNL1        0.0438
     16 C           6.1288    0.8377    0.0000 C.2     1  UNL1       -0.0787
     17 C           4.7279    2.5945    0.0000 C.3     1  UNL1        0.1402
     18 C           2.4593    0.2011    0.0000 C.3     1  UNL1       -0.0596
     19 C           5.7279    2.5945    0.0000 C.3     1  UNL1        0.0049
     20 C           6.3514    1.8126    0.0000 C.2     1  UNL1       -0.0730
     21 C           3.1746    2.1643    0.0000 C.2     1  UNL1       -0.0687
     22 C           3.7262   -2.7932    0.0000 C.2     1  UNL1        0.3102
     23 C           4.1781    3.4227    0.0000 C.2     1  UNL1        0.1909
     24 C           3.2200    3.1574    0.0000 C.2     1  UNL1       -0.0086
     25 C           7.3263    2.0351    0.0000 C.3     1  UNL1       -0.0437
     26 C           2.9043   -3.3629    0.0000 C.3     1  UNL1        0.0509
     27 C           2.4382    3.7809    0.0000 C.3     1  UNL1       -0.0366
     28 C           2.9867   -4.3595    0.0000 C.3     1  UNL1       -0.0525
     29 C           2.0000   -2.9360    0.0000 C.3     1  UNL1       -0.0525
     30 H           6.1685   -0.5602    0.0000 H       1  UNL1        0.0353
     31 H           5.9672   -0.0155    0.0000 H       1  UNL1        0.0375
     32 H           2.9105   -0.7101    0.0000 H       1  UNL1        0.0307
     33 H           3.3577   -1.3714    0.0000 H       1  UNL1        0.0307
     34 H           3.2604    0.8522    0.0000 H       1  UNL1        0.0327
     35 H           6.4556   -2.2076    0.0000 H       1  UNL1        0.0236
     36 H           7.0223   -1.5386    0.0000 H       1  UNL1        0.0236
     37 H           6.3534   -0.9718    0.0000 H       1  UNL1        0.0236
     38 H           4.4203   -2.3117    0.0000 H       1  UNL1        0.0236
     39 H           4.7162   -3.1370    0.0000 H       1  UNL1        0.0236
     40 H           5.5416   -2.8411    0.0000 H       1  UNL1        0.0236
     41 H           4.9330    1.6235    0.0000 H       1  UNL1        0.0404
     42 H           6.6136    0.4511    0.0000 H       1  UNL1        0.0575
     43 H           2.4201    0.8198    0.0000 H       1  UNL1        0.0233
     44 H           1.8405    0.1619    0.0000 H       1  UNL1        0.0233
     45 H           2.4985   -0.4177    0.0000 H       1  UNL1        0.0233
     46 H           2.8077    1.2253    0.0000 H       1  UNL1        0.2102
     47 H           6.2865    2.8635    0.0000 H       1  UNL1        0.0342
     48 H           5.5899    3.1989    0.0000 H       1  UNL1        0.0342
     49 H           2.6566    1.8237    0.0000 H       1  UNL1        0.0580
     50 H           5.9644    3.2839    0.0000 H       1  UNL1        0.2108
     51 H           7.4642    1.4307    0.0000 H       1  UNL1        0.0274
     52 H           7.9307    2.1731    0.0000 H       1  UNL1        0.0274
     53 H           7.1883    2.6396    0.0000 H       1  UNL1        0.0274
     54 H           2.8532   -2.7450    0.0000 H       1  UNL1        0.0408
     55 H           2.8248    4.2656    0.0000 H       1  UNL1        0.0279
     56 H           1.9535    4.1674    0.0000 H       1  UNL1        0.0279
     57 H           2.0516    3.2961    0.0000 H       1  UNL1        0.0279
     58 H           2.3688   -4.4106    0.0000 H       1  UNL1        0.0237
     59 H           3.0378   -4.9774    0.0000 H       1  UNL1        0.0237
     60 H           3.6046   -4.3084    0.0000 H       1  UNL1        0.0237
     61 H           2.2647   -2.3753    0.0000 H       1  UNL1        0.0237
     62 H           1.4393   -2.6713    0.0000 H       1  UNL1        0.0237
     63 H           1.7353   -3.4966    0.0000 H       1  UNL1        0.0237
@<TRIPOS>BOND
     1     7     1    1
     2     1    22    1
     3    10     2    1
     4     2    46    1
     5    17     3    1
     6     3    50    1
     7     4    22    2
     8     5    23    2
     9     6     7    1
    10     6     8    1
    11     6     9    1
    12     6    30    1
    13     7     8    1
    14     7    11    1
    15     8    13    1
    16     8    14    1
    17     9    10    1
    18     9    16    1
    19     9    31    1
    20    10    12    1
    21    10    15    1
    22    11    12    1
    23    11    32    1
    24    11    33    1
    25    12    18    1
    26    12    34    1
    27    13    35    1
    28    13    36    1
    29    13    37    1
    30    14    38    1
    31    14    39    1
    32    14    40    1
    33    15    17    1
    34    15    21    1
    35    15    41    1
    36    16    20    2
    37    16    42    1
    38    17    19    1
    39    17    23    1
    40    18    43    1
    41    18    44    1
    42    18    45    1
    43    19    20    1
    44    19    47    1
    45    19    48    1
    46    20    25    1
    47    21    24    2
    48    21    49    1
    49    22    26    1
    50    23    24    1
    51    24    27    1
    52    25    51    1
    53    25    52    1
    54    25    53    1
    55    26    28    1
    56    26    29    1
    57    26    54    1
    58    27    55    1
    59    27    56    1
    60    27    57    1
    61    28    58    1
    62    28    59    1
    63    28    60    1
    64    29    61    1
    65    29    62    1
    66    29    63    1
