@<TRIPOS>MOLECULE
IMPHY009229
 76 80 0 0 0
SMALL
GASTEIGER

@<TRIPOS>ATOM
      1 O           3.9494    0.2767    0.0000 O.3     1  UNL1       -0.3672
      2 O           5.4154    1.1767    0.0000 O.3     1  UNL1       -0.3374
      3 O           4.9276   -1.7548    0.0000 O.3     1  UNL1       -0.4580
      4 O           4.4495    0.6356    0.0000 O.3     1  UNL1       -0.4310
      5 O           6.6935   -2.7925    0.0000 O.3     1  UNL1       -0.3878
      6 O          11.6257    0.1826    0.0000 O.3     1  UNL1       -0.3512
      7 O           5.7762   -3.2647    0.0000 O.2     1  UNL1       -0.2512
      8 O           4.8977    2.3086    0.0000 O.2     1  UNL1       -0.2453
      9 O          10.3803   -1.0920    0.0000 O.3     1  UNL1       -0.3667
     10 C           5.8154   -0.2233    0.0000 C.3     1  UNL1        0.1068
     11 C           4.9494    0.2767    0.0000 C.3     1  UNL1        0.1102
     12 C           6.6814    0.2767    0.0000 C.3     1  UNL1       -0.0153
     13 C           7.5914   -0.2301    0.0000 C.3     1  UNL1       -0.0232
     14 C           5.7993   -1.2648    0.0000 C.3     1  UNL1        0.1433
     15 C           4.9494    1.2767    0.0000 C.3     1  UNL1        0.0058
     16 C           6.6814    1.2767    0.0000 C.3     1  UNL1       -0.0221
     17 C           5.8154    1.7767    0.0000 C.3     1  UNL1        0.0657
     18 C           5.4154    0.3767    0.0000 C.3     1  UNL1        0.2174
     19 C           4.4494   -0.5893    0.0000 C.3     1  UNL1        0.0785
     20 C           7.5994   -1.2717    0.0000 C.3     1  UNL1       -0.0086
     21 C           6.6974   -1.7926    0.0000 C.3     1  UNL1        0.0960
     22 C           8.5913   -0.2186    0.0000 C.3     1  UNL1       -0.0466
     23 C           8.0814    0.6416    0.0000 C.3     1  UNL1       -0.0590
     24 C           8.4674   -1.7684    0.0000 C.3     1  UNL1       -0.0594
     25 C           9.0813    0.6532    0.0000 C.3     1  UNL1       -0.0450
     26 C          10.0812    0.6647    0.0000 C.3     1  UNL1        0.0121
     27 C           4.9160   -2.7547    0.0000 C.2     1  UNL1        0.3043
     28 C           4.1907    1.6015    0.0000 C.2     1  UNL1        0.3367
     29 C          10.6596    1.4805    0.0000 C.3     1  UNL1       -0.0219
     30 C          10.6783   -0.1374    0.0000 C.3     1  UNL1        0.1590
     31 C          11.6142    1.1825    0.0000 C.3     1  UNL1        0.0511
     32 C           4.0443   -3.2446    0.0000 C.3     1  UNL1        0.0332
     33 C           3.2247    1.8603    0.0000 C.2     1  UNL1        0.0294
     34 C           2.5176    1.1532    0.0000 C.3     1  UNL1       -0.0333
     35 C           2.9659    2.8262    0.0000 C.2     1  UNL1       -0.0774
     36 C           2.0000    3.0851    0.0000 C.3     1  UNL1       -0.0461
     37 H           7.4175    0.7017    0.0000 H       1  UNL1        0.0316
     38 H           5.2666   -0.9476    0.0000 H       1  UNL1        0.0769
     39 H           4.7373    1.8593    0.0000 H       1  UNL1        0.0319
     40 H           4.3388    1.1690    0.0000 H       1  UNL1        0.0319
     41 H           7.2920    1.1690    0.0000 H       1  UNL1        0.0293
     42 H           6.8935    1.8593    0.0000 H       1  UNL1        0.0293
     43 H           5.8154    2.6267    0.0000 H       1  UNL1        0.0598
     44 H           5.0540   -0.1271    0.0000 H       1  UNL1        0.1065
     45 H           3.9744   -0.9878    0.0000 H       1  UNL1        0.0589
     46 H           4.9243   -0.9878    0.0000 H       1  UNL1        0.0589
     47 H           8.1346   -0.9586    0.0000 H       1  UNL1        0.0330
     48 H           7.2337   -2.1036    0.0000 H       1  UNL1        0.0633
     49 H           8.4908   -0.8304    0.0000 H       1  UNL1        0.0271
     50 H           9.1764   -0.4239    0.0000 H       1  UNL1        0.0271
     51 H           8.6218    0.3378    0.0000 H       1  UNL1        0.0235
     52 H           8.3851    1.1821    0.0000 H       1  UNL1        0.0235
     53 H           7.5409    0.9454    0.0000 H       1  UNL1        0.0235
     54 H           8.1595   -2.3065    0.0000 H       1  UNL1        0.0233
     55 H           9.0055   -2.0763    0.0000 H       1  UNL1        0.0233
     56 H           8.7753   -1.2303    0.0000 H       1  UNL1        0.0233
     57 H           9.1819    1.2650    0.0000 H       1  UNL1        0.0270
     58 H           8.4963    0.8585    0.0000 H       1  UNL1        0.0270
     59 H           7.2292   -3.1046    0.0000 H       1  UNL1        0.2099
     60 H           9.7934    1.2139    0.0000 H       1  UNL1        0.0350
     61 H          10.9052    2.0498    0.0000 H       1  UNL1        0.0292
     62 H          10.1191    1.7843    0.0000 H       1  UNL1        0.0292
     63 H          10.0671   -0.2415    0.0000 H       1  UNL1        0.0910
     64 H          12.2315    1.1248    0.0000 H       1  UNL1        0.0561
     65 H          11.7361    1.7904    0.0000 H       1  UNL1        0.0561
     66 H           3.7405   -2.7042    0.0000 H       1  UNL1        0.0342
     67 H           3.5038   -3.5484    0.0000 H       1  UNL1        0.0342
     68 H           4.3480   -3.7851    0.0000 H       1  UNL1        0.0342
     69 H          10.8005   -1.5479    0.0000 H       1  UNL1        0.2125
     70 H           2.0792    1.5917    0.0000 H       1  UNL1        0.0280
     71 H           2.0792    0.7148    0.0000 H       1  UNL1        0.0280
     72 H           2.9560    0.7148    0.0000 H       1  UNL1        0.0280
     73 H           3.4044    3.2647    0.0000 H       1  UNL1        0.0574
     74 H           2.1605    3.6839    0.0000 H       1  UNL1        0.0272
     75 H           1.4011    3.2455    0.0000 H       1  UNL1        0.0272
     76 H           1.8395    2.4862    0.0000 H       1  UNL1        0.0272
@<TRIPOS>BOND
     1    11     1    1
     2     1    19    1
     3     2    17    1
     4     2    18    1
     5    14     3    1
     6     3    27    1
     7    18     4    1
     8     4    28    1
     9    21     5    1
    10     5    59    1
    11     6    30    1
    12     6    31    1
    13     7    27    2
    14     8    28    2
    15    30     9    1
    16     9    69    1
    17    10    11    1
    18    10    12    1
    19    10    14    1
    20    10    18    1
    21    11    15    1
    22    11    19    1
    23    12    13    1
    24    12    16    1
    25    12    37    1
    26    13    20    1
    27    13    22    1
    28    13    23    1
    29    14    21    1
    30    14    38    1
    31    15    17    1
    32    15    39    1
    33    15    40    1
    34    16    17    1
    35    16    41    1
    36    16    42    1
    37    17    43    1
    38    18    44    1
    39    19    45    1
    40    19    46    1
    41    20    21    1
    42    20    24    1
    43    20    47    1
    44    21    48    1
    45    22    25    1
    46    22    49    1
    47    22    50    1
    48    23    51    1
    49    23    52    1
    50    23    53    1
    51    24    54    1
    52    24    55    1
    53    24    56    1
    54    26    25    1
    55    25    57    1
    56    25    58    1
    57    26    29    1
    58    26    30    1
    59    26    60    1
    60    27    32    1
    61    28    33    1
    62    29    31    1
    63    29    61    1
    64    29    62    1
    65    30    63    1
    66    31    64    1
    67    31    65    1
    68    32    66    1
    69    32    67    1
    70    32    68    1
    71    33    34    1
    72    33    35    2
    73    34    70    1
    74    34    71    1
    75    34    72    1
    76    35    36    1
    77    35    73    1
    78    36    74    1
    79    36    75    1
    80    36    76    1
