@<TRIPOS>MOLECULE
IMPHY014896
 71 75 0 0 0
SMALL
GASTEIGER

@<TRIPOS>ATOM
      1 O           6.8671   -1.7857    0.0000 O.3     1  UNL1       -0.3366
      2 O           5.1350    0.2143    0.0000 O.3     1  UNL1       -0.3313
      3 O           6.0010   -3.2857    0.0000 O.3     1  UNL1       -0.3461
      4 O           6.8671    0.2143    0.0000 O.3     1  UNL1       -0.4514
      5 O           5.1350   -2.7857    0.0000 O.3     1  UNL1       -0.3863
      6 O           3.4030   -1.7857    0.0000 O.3     1  UNL1       -0.3865
      7 O           8.5991   -2.7857    0.0000 O.3     1  UNL1       -0.3841
      8 O           8.5991   -4.7857    0.0000 O.3     1  UNL1       -0.3864
      9 O           6.8671   -5.7857    0.0000 O.3     1  UNL1       -0.3869
     10 O           2.5369   -0.2857    0.0000 O.3     1  UNL1       -0.3924
     11 O           7.7331    2.7143    0.0000 O.2     1  UNL1       -0.1997
     12 O           4.2308    2.7112    0.0000 O.3     1  UNL1       -0.5057
     13 O           5.9889    5.7836    0.0000 O.3     1  UNL1       -0.5063
     14 O           9.4651   -1.2857    0.0000 O.3     1  UNL1       -0.5032
     15 O          11.1972    1.7143    0.0000 O.3     1  UNL1       -0.5032
     16 O          11.1972   -0.2857    0.0000 O.3     1  UNL1       -0.5009
     17 C           6.0010   -1.2857    0.0000 C.3     1  UNL1        0.1519
     18 C           5.1350   -1.7857    0.0000 C.3     1  UNL1        0.1155
     19 C           4.2690   -1.2857    0.0000 C.3     1  UNL1        0.1120
     20 C           4.2690   -0.2857    0.0000 C.3     1  UNL1        0.1140
     21 C           6.0010   -0.2857    0.0000 C.3     1  UNL1        0.2316
     22 C           6.8671   -2.7857    0.0000 C.3     1  UNL1        0.1882
     23 C           7.7331   -3.2857    0.0000 C.3     1  UNL1        0.1341
     24 C           7.7331   -4.2857    0.0000 C.3     1  UNL1        0.1137
     25 C           6.8671   -4.7857    0.0000 C.3     1  UNL1        0.1069
     26 C           3.4030    0.2143    0.0000 C.3     1  UNL1        0.0731
     27 C           6.0010   -4.2857    0.0000 C.3     1  UNL1        0.0792
     28 C           6.8671    1.2143    0.0000 C.ar    1  UNL1        0.2288
     29 C           7.7331    1.7143    0.0000 C.ar    1  UNL1        0.4047
     30 C           6.0010    1.7143    0.0000 C.ar    1  UNL1        0.0093
     31 C           6.0010    2.7143    0.0000 C.ar    1  UNL1        0.1241
     32 C           8.5991    1.2143    0.0000 C.ar    1  UNL1        0.0899
     33 C           6.8671    3.2143    0.0000 C.ar    1  UNL1        0.3708
     34 C           5.0910    3.2212    0.0000 C.ar    1  UNL1        0.1366
     35 C           6.8831    4.2558    0.0000 C.ar    1  UNL1        0.0847
     36 C           9.4651    1.7143    0.0000 C.ar    1  UNL1       -0.0000
     37 C           8.5991    0.2143    0.0000 C.ar    1  UNL1       -0.0000
     38 C           5.0830    4.2628    0.0000 C.ar    1  UNL1        0.0225
     39 C           5.9851    4.7836    0.0000 C.ar    1  UNL1        0.1293
     40 C           9.4651   -0.2857    0.0000 C.ar    1  UNL1        0.1628
     41 C          10.3312    1.2143    0.0000 C.ar    1  UNL1        0.1628
     42 C          10.3312    0.2143    0.0000 C.ar    1  UNL1        0.2006
     43 H           6.0010   -1.9057    0.0000 H       1  UNL1        0.0687
     44 H           4.5981   -2.0957    0.0000 H       1  UNL1        0.0648
     45 H           4.2690   -1.9057    0.0000 H       1  UNL1        0.0647
     46 H           4.2690    0.3343    0.0000 H       1  UNL1        0.0647
     47 H           6.0010    0.3343    0.0000 H       1  UNL1        0.1084
     48 H           7.4040   -2.4757    0.0000 H       1  UNL1        0.0937
     49 H           8.2700   -3.5957    0.0000 H       1  UNL1        0.0671
     50 H           7.7331   -4.9057    0.0000 H       1  UNL1        0.0647
     51 H           6.3301   -5.0957    0.0000 H       1  UNL1        0.0643
     52 H           3.8015    0.6893    0.0000 H       1  UNL1        0.0584
     53 H           3.0044    0.6893    0.0000 H       1  UNL1        0.0584
     54 H           5.3905   -4.1780    0.0000 H       1  UNL1        0.0587
     55 H           5.7890   -4.8683    0.0000 H       1  UNL1        0.0587
     56 H           4.5981   -3.0957    0.0000 H       1  UNL1        0.2100
     57 H           3.4030   -2.4057    0.0000 H       1  UNL1        0.2100
     58 H           9.1360   -3.0957    0.0000 H       1  UNL1        0.2101
     59 H           8.5991   -5.4057    0.0000 H       1  UNL1        0.2100
     60 H           6.3301   -6.0957    0.0000 H       1  UNL1        0.2100
     61 H           2.0000    0.0243    0.0000 H       1  UNL1        0.2095
     62 H           5.4641    1.4043    0.0000 H       1  UNL1        0.0667
     63 H           7.4236    4.5596    0.0000 H       1  UNL1        0.0749
     64 H           9.4651    2.3343    0.0000 H       1  UNL1        0.0664
     65 H           8.0622   -0.0957    0.0000 H       1  UNL1        0.0664
     66 H           4.5449    4.5707    0.0000 H       1  UNL1        0.0691
     67 H           3.6904    3.0150    0.0000 H       1  UNL1        0.2922
     68 H           5.4532    6.0957    0.0000 H       1  UNL1        0.2921
     69 H          10.0021   -1.5957    0.0000 H       1  UNL1        0.2923
     70 H          11.1972    2.3343    0.0000 H       1  UNL1        0.2923
     71 H          11.1972   -0.9057    0.0000 H       1  UNL1        0.2924
@<TRIPOS>UNITY_ATOM_ATTR
11 1
charge 1
@<TRIPOS>BOND
     1     1    17    1
     2     1    22    1
     3     2    20    1
     4     2    21    1
     5     3    22    1
     6     3    27    1
     7     4    21    1
     8     4    28    1
     9     5    18    1
    10     5    56    1
    11     6    19    1
    12     6    57    1
    13     7    23    1
    14     7    58    1
    15     8    24    1
    16     8    59    1
    17     9    25    1
    18     9    60    1
    19    10    26    1
    20    10    61    1
    21    11    29   ar
    22    11    33   ar
    23    12    34    1
    24    12    67    1
    25    13    39    1
    26    13    68    1
    27    14    40    1
    28    14    69    1
    29    15    41    1
    30    15    70    1
    31    16    42    1
    32    16    71    1
    33    17    18    1
    34    17    21    1
    35    17    43    1
    36    18    19    1
    37    18    44    1
    38    19    20    1
    39    19    45    1
    40    20    26    1
    41    20    46    1
    42    21    47    1
    43    22    23    1
    44    22    48    1
    45    23    24    1
    46    23    49    1
    47    24    25    1
    48    24    50    1
    49    25    27    1
    50    25    51    1
    51    26    52    1
    52    26    53    1
    53    27    54    1
    54    27    55    1
    55    28    29   ar
    56    28    30   ar
    57    29    32    1
    58    30    31   ar
    59    30    62    1
    60    31    33   ar
    61    31    34   ar
    62    32    36   ar
    63    32    37   ar
    64    33    35   ar
    65    34    38   ar
    66    35    39   ar
    67    35    63    1
    68    36    41   ar
    69    36    64    1
    70    37    40   ar
    71    37    65    1
    72    38    39   ar
    73    38    66    1
    74    40    42   ar
    75    41    42   ar
