@<TRIPOS>MOLECULE
IMPHY011323
 62 64 0 0 0
SMALL
GASTEIGER

@<TRIPOS>ATOM
      1 O          12.6512   -0.9615    0.0000 O.3     1  UNL1       -0.3899
      2 O           9.1560   -0.7487    0.0000 O.3     1  UNL1       -0.4581
      3 O           7.6610   -0.5679    0.0000 O.3     1  UNL1       -0.3745
      4 O           6.5817    1.5692    0.0000 O.3     1  UNL1       -0.4551
      5 O           9.5162    0.9455    0.0000 O.2     1  UNL1       -0.2474
      6 O           4.9344    1.0340    0.0000 O.2     1  UNL1       -0.2456
      7 N          11.3943   -3.2167    0.0000 N.3     1  UNL1       -0.2895
      8 C          11.3943   -2.2167    0.0000 C.3     1  UNL1        0.0611
      9 C          12.3405   -1.9120    0.0000 C.3     1  UNL1        0.0758
     10 C          12.3405   -3.5214    0.0000 C.3     1  UNL1        0.0023
     11 C          12.9241   -2.7167    0.0000 C.3     1  UNL1       -0.0122
     12 C          10.4432   -1.9077    0.0000 C.2     1  UNL1       -0.0158
     13 C          10.4432   -3.5257    0.0000 C.3     1  UNL1        0.0182
     14 C           9.8554   -2.7167    0.0000 C.2     1  UNL1       -0.0661
     15 C          10.1342   -0.9566    0.0000 C.3     1  UNL1        0.1152
     16 C           7.8689    0.4102    0.0000 C.3     1  UNL1        0.2012
     17 C           8.0768    1.3884    0.0000 C.3     1  UNL1       -0.0037
     18 C           8.8470    0.2023    0.0000 C.2     1  UNL1        0.3435
     19 C           6.8907    0.6181    0.0000 C.3     1  UNL1        0.1398
     20 C           7.3336    2.0575    0.0000 C.3     1  UNL1       -0.0594
     21 C           9.0279    1.6974    0.0000 C.3     1  UNL1       -0.0594
     22 C           6.2216   -0.1250    0.0000 C.3     1  UNL1       -0.0244
     23 C           5.6036    1.7771    0.0000 C.2     1  UNL1        0.3323
     24 C           5.2946    2.7282    0.0000 C.2     1  UNL1        0.0231
     25 C           4.3164    2.9361    0.0000 C.2     1  UNL1       -0.0478
     26 C           3.6473    2.1929    0.0000 C.ar    1  UNL1       -0.0248
     27 C           2.6691    2.4008    0.0000 C.ar    1  UNL1       -0.0546
     28 C           3.9563    1.2419    0.0000 C.ar    1  UNL1       -0.0546
     29 C           2.0000    1.6577    0.0000 C.ar    1  UNL1       -0.0612
     30 C           3.2872    0.4987    0.0000 C.ar    1  UNL1       -0.0612
     31 C           2.3090    0.7066    0.0000 C.ar    1  UNL1       -0.0617
     32 H          11.3954   -1.3667    0.0000 H       1  UNL1        0.0536
     33 H          12.9530   -1.8158    0.0000 H       1  UNL1        0.0612
     34 H          12.0895   -4.0884    0.0000 H       1  UNL1        0.0428
     35 H          12.8779   -3.8307    0.0000 H       1  UNL1        0.0428
     36 H          13.3850   -3.1314    0.0000 H       1  UNL1        0.0303
     37 H          13.3850   -2.3020    0.0000 H       1  UNL1        0.0303
     38 H           9.9063   -3.8357    0.0000 H       1  UNL1        0.0470
     39 H          10.6954   -4.0921    0.0000 H       1  UNL1        0.0470
     40 H           9.2354   -2.7167    0.0000 H       1  UNL1        0.0586
     41 H          10.7482   -0.8704    0.0000 H       1  UNL1        0.0746
     42 H          10.1558   -0.3370    0.0000 H       1  UNL1        0.0746
     43 H          13.2578   -0.8336    0.0000 H       1  UNL1        0.2099
     44 H           8.5376    0.9735    0.0000 H       1  UNL1        0.0330
     45 H           7.3056    1.0789    0.0000 H       1  UNL1        0.0766
     46 H           7.7485    2.5183    0.0000 H       1  UNL1        0.0233
     47 H           6.8729    2.4724    0.0000 H       1  UNL1        0.0233
     48 H           6.9188    1.5968    0.0000 H       1  UNL1        0.0233
     49 H           9.2194    1.1077    0.0000 H       1  UNL1        0.0233
     50 H           9.6175    1.8890    0.0000 H       1  UNL1        0.0233
     51 H           8.8363    2.2870    0.0000 H       1  UNL1        0.0233
     52 H           5.7609    0.2899    0.0000 H       1  UNL1        0.0266
     53 H           5.8068   -0.5857    0.0000 H       1  UNL1        0.0266
     54 H           6.6824   -0.5399    0.0000 H       1  UNL1        0.0266
     55 H           7.0713   -0.7595    0.0000 H       1  UNL1        0.2110
     56 H           5.7094    3.1889    0.0000 H       1  UNL1        0.0689
     57 H           4.1248    3.5257    0.0000 H       1  UNL1        0.0626
     58 H           2.4775    2.9905    0.0000 H       1  UNL1        0.0623
     59 H           4.5628    1.1130    0.0000 H       1  UNL1        0.0623
     60 H           1.3936    1.7866    0.0000 H       1  UNL1        0.0618
     61 H           3.4788   -0.0909    0.0000 H       1  UNL1        0.0618
     62 H           1.8942    0.2459    0.0000 H       1  UNL1        0.0618
@<TRIPOS>BOND
     1     9     1    1
     2     1    43    1
     3     2    15    1
     4     2    18    1
     5    16     3    1
     6     3    55    1
     7    19     4    1
     8     4    23    1
     9     5    18    2
    10     6    23    2
    11     7     8    1
    12     7    10    1
    13     7    13    1
    14     8     9    1
    15     8    12    1
    16     8    32    1
    17     9    11    1
    18     9    33    1
    19    10    11    1
    20    10    34    1
    21    10    35    1
    22    11    36    1
    23    11    37    1
    24    12    14    2
    25    12    15    1
    26    13    14    1
    27    13    38    1
    28    13    39    1
    29    14    40    1
    30    15    41    1
    31    15    42    1
    32    16    17    1
    33    16    18    1
    34    16    19    1
    35    17    20    1
    36    17    21    1
    37    17    44    1
    38    19    22    1
    39    19    45    1
    40    20    46    1
    41    20    47    1
    42    20    48    1
    43    21    49    1
    44    21    50    1
    45    21    51    1
    46    22    52    1
    47    22    53    1
    48    22    54    1
    49    23    24    1
    50    24    25    2
    51    24    56    1
    52    25    26    1
    53    25    57    1
    54    26    27   ar
    55    26    28   ar
    56    27    29   ar
    57    27    58    1
    58    28    30   ar
    59    28    59    1
    60    29    31   ar
    61    29    60    1
    62    30    31   ar
    63    30    61    1
    64    31    62    1
