@<TRIPOS>MOLECULE
IMPHY005567
 36 38 0 0 0
SMALL
GASTEIGER

@<TRIPOS>ATOM
      1 O           8.1962    0.8608    0.0000 O.3     1  UNL1       -0.4885
      2 O           8.1962   -1.1875    0.0000 O.3     1  UNL1       -0.4913
      3 O           6.4144    1.8713    0.0000 O.3     1  UNL1       -0.5027
      4 O           4.6660    1.8367    0.0000 O.2     1  UNL1       -0.2864
      5 N           4.6660   -1.1633    0.0000 N.ar    1  UNL1       -0.3425
      6 C           5.5321   -0.6633    0.0000 C.ar    1  UNL1        0.0602
      7 C           5.5321    0.3367    0.0000 C.ar    1  UNL1        0.0910
      8 C           3.8000   -0.6633    0.0000 C.ar    1  UNL1        0.0529
      9 C           3.8000    0.3367    0.0000 C.ar    1  UNL1        0.0459
     10 C           4.6660    0.8367    0.0000 C.ar    1  UNL1        0.2007
     11 C           6.4260    0.8713    0.0000 C.ar    1  UNL1        0.1752
     12 C           6.4260   -1.1980    0.0000 C.ar    1  UNL1        0.0082
     13 C           7.3321    0.3575    0.0000 C.ar    1  UNL1        0.2041
     14 C           7.3321   -0.6841    0.0000 C.ar    1  UNL1        0.1672
     15 C           4.6660   -2.1633    0.0000 C.3     1  UNL1        0.0124
     16 C           2.9061   -1.1980    0.0000 C.ar    1  UNL1       -0.0375
     17 C           2.9061    0.8713    0.0000 C.ar    1  UNL1       -0.0489
     18 C           2.0000   -0.6841    0.0000 C.ar    1  UNL1       -0.0598
     19 C           2.0000    0.3575    0.0000 C.ar    1  UNL1       -0.0610
     20 C           9.0641    0.3642    0.0000 C.3     1  UNL1        0.0791
     21 C           8.1923   -2.1875    0.0000 C.3     1  UNL1        0.0790
     22 H           6.4188   -1.8179    0.0000 H       1  UNL1        0.0676
     23 H           4.0460   -2.1633    0.0000 H       1  UNL1        0.0456
     24 H           4.6660   -2.7833    0.0000 H       1  UNL1        0.0456
     25 H           5.2860   -2.1633    0.0000 H       1  UNL1        0.0456
     26 H           2.9132   -1.8179    0.0000 H       1  UNL1        0.0638
     27 H           2.9132    1.4913    0.0000 H       1  UNL1        0.0625
     28 H           1.4643   -0.9962    0.0000 H       1  UNL1        0.0618
     29 H           1.4643    0.6696    0.0000 H       1  UNL1        0.0618
     30 H           6.9478    2.1875    0.0000 H       1  UNL1        0.2923
     31 H           8.7562   -0.1740    0.0000 H       1  UNL1        0.0660
     32 H           9.6022    0.0562    0.0000 H       1  UNL1        0.0660
     33 H           9.3720    0.9023    0.0000 H       1  UNL1        0.0660
     34 H           7.5723   -2.1851    0.0000 H       1  UNL1        0.0660
     35 H           8.1899   -2.8075    0.0000 H       1  UNL1        0.0660
     36 H           8.8123   -2.1898    0.0000 H       1  UNL1        0.0660
@<TRIPOS>BOND
     1     1    13    1
     2     1    20    1
     3     2    14    1
     4     2    21    1
     5     3    11    1
     6     3    30    1
     7     4    10    2
     8     5     6   ar
     9     5     8   ar
    10     5    15    1
    11     6     7   ar
    12     6    12   ar
    13     7    10   ar
    14     7    11   ar
    15     8     9   ar
    16     8    16   ar
    17     9    10   ar
    18     9    17   ar
    19    11    13   ar
    20    12    14   ar
    21    12    22    1
    22    13    14   ar
    23    15    23    1
    24    15    24    1
    25    15    25    1
    26    16    18   ar
    27    16    26    1
    28    17    19   ar
    29    17    27    1
    30    18    19   ar
    31    18    28    1
    32    19    29    1
    33    20    31    1
    34    20    32    1
    35    20    33    1
    36    21    34    1
    37    21    35    1
    38    21    36    1
