@<TRIPOS>MOLECULE
IMPHY010924
 51 50 0 0 0
SMALL
GASTEIGER

@<TRIPOS>ATOM
      1 C          11.5263    0.2500    0.0000 C.3     1  UNL1       -0.0530
      2 C          12.3923   -0.2500    0.0000 C.3     1  UNL1       -0.0531
      3 C          10.6603   -0.2500    0.0000 C.3     1  UNL1       -0.0528
      4 C          13.2583    0.2500    0.0000 C.3     1  UNL1       -0.0531
      5 C           9.7942    0.2500    0.0000 C.3     1  UNL1       -0.0496
      6 C          14.1244   -0.2500    0.0000 C.3     1  UNL1       -0.0533
      7 C           8.9282   -0.2500    0.0000 C.3     1  UNL1       -0.0348
      8 C           5.4641   -0.2500    0.0000 C.3     1  UNL1       -0.0496
      9 C           4.5981    0.2500    0.0000 C.3     1  UNL1       -0.0528
     10 C          14.9904    0.2500    0.0000 C.3     1  UNL1       -0.0559
     11 C           6.3301    0.2500    0.0000 C.3     1  UNL1       -0.0348
     12 C           3.7321   -0.2500    0.0000 C.3     1  UNL1       -0.0533
     13 C           8.0622    0.2500    0.0000 C.2     1  UNL1       -0.0879
     14 C           7.1962   -0.2500    0.0000 C.2     1  UNL1       -0.0879
     15 C           2.8660    0.2500    0.0000 C.3     1  UNL1       -0.0559
     16 C          15.8564   -0.2500    0.0000 C.3     1  UNL1       -0.0653
     17 C           2.0000   -0.2500    0.0000 C.3     1  UNL1       -0.0653
     18 H          11.9248    0.7249    0.0000 H       1  UNL1        0.0265
     19 H          11.1278    0.7249    0.0000 H       1  UNL1        0.0265
     20 H          11.9938   -0.7249    0.0000 H       1  UNL1        0.0265
     21 H          12.7908   -0.7249    0.0000 H       1  UNL1        0.0265
     22 H          10.2617   -0.7249    0.0000 H       1  UNL1        0.0265
     23 H          11.0588   -0.7249    0.0000 H       1  UNL1        0.0265
     24 H          13.6569    0.7249    0.0000 H       1  UNL1        0.0265
     25 H          12.8598    0.7249    0.0000 H       1  UNL1        0.0265
     26 H          10.1928    0.7249    0.0000 H       1  UNL1        0.0268
     27 H           9.3957    0.7249    0.0000 H       1  UNL1        0.0268
     28 H          13.7258   -0.7249    0.0000 H       1  UNL1        0.0265
     29 H          14.5229   -0.7249    0.0000 H       1  UNL1        0.0265
     30 H           8.5297   -0.7249    0.0000 H       1  UNL1        0.0307
     31 H           9.3267   -0.7249    0.0000 H       1  UNL1        0.0307
     32 H           5.0656   -0.7249    0.0000 H       1  UNL1        0.0268
     33 H           5.8626   -0.7249    0.0000 H       1  UNL1        0.0268
     34 H           4.9966    0.7249    0.0000 H       1  UNL1        0.0265
     35 H           4.1995    0.7249    0.0000 H       1  UNL1        0.0265
     36 H          15.3889    0.7249    0.0000 H       1  UNL1        0.0263
     37 H          14.5919    0.7249    0.0000 H       1  UNL1        0.0263
     38 H           6.7287    0.7249    0.0000 H       1  UNL1        0.0307
     39 H           5.9316    0.7249    0.0000 H       1  UNL1        0.0307
     40 H           3.3335   -0.7249    0.0000 H       1  UNL1        0.0265
     41 H           4.1306   -0.7249    0.0000 H       1  UNL1        0.0265
     42 H           8.0622    0.8700    0.0000 H       1  UNL1        0.0569
     43 H           7.1962   -0.8700    0.0000 H       1  UNL1        0.0569
     44 H           3.2646    0.7249    0.0000 H       1  UNL1        0.0263
     45 H           2.4675    0.7249    0.0000 H       1  UNL1        0.0263
     46 H          15.5464   -0.7869    0.0000 H       1  UNL1        0.0230
     47 H          16.3933   -0.5600    0.0000 H       1  UNL1        0.0230
     48 H          16.1664    0.2869    0.0000 H       1  UNL1        0.0230
     49 H           1.6900    0.2869    0.0000 H       1  UNL1        0.0230
     50 H           1.4631   -0.5600    0.0000 H       1  UNL1        0.0230
     51 H           2.3100   -0.7869    0.0000 H       1  UNL1        0.0230
@<TRIPOS>BOND
     1     1     2    1
     2     1     3    1
     3     1    18    1
     4     1    19    1
     5     2     4    1
     6     2    20    1
     7     2    21    1
     8     3     5    1
     9     3    22    1
    10     3    23    1
    11     4     6    1
    12     4    24    1
    13     4    25    1
    14     5     7    1
    15     5    26    1
    16     5    27    1
    17     6    10    1
    18     6    28    1
    19     6    29    1
    20     7    13    1
    21     7    30    1
    22     7    31    1
    23     8     9    1
    24     8    11    1
    25     8    32    1
    26     8    33    1
    27     9    12    1
    28     9    34    1
    29     9    35    1
    30    10    16    1
    31    10    36    1
    32    10    37    1
    33    11    14    1
    34    11    38    1
    35    11    39    1
    36    12    15    1
    37    12    40    1
    38    12    41    1
    39    13    14    2
    40    13    42    1
    41    14    43    1
    42    15    17    1
    43    15    44    1
    44    15    45    1
    45    16    46    1
    46    16    47    1
    47    16    48    1
    48    17    49    1
    49    17    50    1
    50    17    51    1
