@<TRIPOS>MOLECULE
IMPHY016844
 31 31 0 0 0
SMALL
GASTEIGER

@<TRIPOS>ATOM
      1 S           2.8660    0.5000    0.0000 S.3     1  UNL1       -0.1543
      2 C           2.8660   -0.5000    0.0000 C.3     1  UNL1        0.0055
      3 C           2.0000   -1.0000    0.0000 C.3     1  UNL1       -0.0411
      4 C           3.7320   -1.0000    0.0000 C.3     1  UNL1       -0.0411
      5 C           2.0000   -2.0000    0.0000 C.3     1  UNL1       -0.0521
      6 C           3.7320   -2.0000    0.0000 C.3     1  UNL1       -0.0521
      7 C           2.8660   -2.5000    0.0000 C.3     1  UNL1       -0.0530
      8 C           3.7320    1.0000    0.0000 C.3     1  UNL1        0.0025
      9 C           3.7320    2.0000    0.0000 C.3     1  UNL1       -0.0442
     10 C           4.5981    0.5000    0.0000 C.3     1  UNL1       -0.0533
     11 C           4.5981    2.5000    0.0000 C.3     1  UNL1       -0.0643
     12 H           3.4030   -0.1900    0.0000 H       1  UNL1        0.0412
     13 H           1.7880   -0.4174    0.0000 H       1  UNL1        0.0276
     14 H           1.3894   -1.1077    0.0000 H       1  UNL1        0.0276
     15 H           4.3426   -1.1077    0.0000 H       1  UNL1        0.0276
     16 H           3.9441   -0.4174    0.0000 H       1  UNL1        0.0276
     17 H           1.3894   -1.8923    0.0000 H       1  UNL1        0.0266
     18 H           1.7880   -2.5826    0.0000 H       1  UNL1        0.0266
     19 H           3.9441   -2.5826    0.0000 H       1  UNL1        0.0266
     20 H           4.3426   -1.8923    0.0000 H       1  UNL1        0.0266
     21 H           2.4675   -2.9750    0.0000 H       1  UNL1        0.0265
     22 H           3.2646   -2.9750    0.0000 H       1  UNL1        0.0265
     23 H           3.7320    0.3800    0.0000 H       1  UNL1        0.0409
     24 H           3.5200    2.5826    0.0000 H       1  UNL1        0.0273
     25 H           3.1215    1.8923    0.0000 H       1  UNL1        0.0273
     26 H           4.2881   -0.0369    0.0000 H       1  UNL1        0.0240
     27 H           5.1350    0.1900    0.0000 H       1  UNL1        0.0240
     28 H           4.9081    1.0369    0.0000 H       1  UNL1        0.0240
     29 H           4.9081    1.9631    0.0000 H       1  UNL1        0.0230
     30 H           5.1350    2.8100    0.0000 H       1  UNL1        0.0230
     31 H           4.2881    3.0369    0.0000 H       1  UNL1        0.0230
@<TRIPOS>BOND
     1     1     2    1
     2     1     8    1
     3     2     3    1
     4     2     4    1
     5     2    12    1
     6     3     5    1
     7     3    13    1
     8     3    14    1
     9     4     6    1
    10     4    15    1
    11     4    16    1
    12     5     7    1
    13     5    17    1
    14     5    18    1
    15     6     7    1
    16     6    19    1
    17     6    20    1
    18     7    21    1
    19     7    22    1
    20     8     9    1
    21     8    10    1
    22     8    23    1
    23     9    11    1
    24     9    24    1
    25     9    25    1
    26    10    26    1
    27    10    27    1
    28    10    28    1
    29    11    29    1
    30    11    30    1
    31    11    31    1
