@<TRIPOS>MOLECULE
IMPHY012444
 42 43 0 0 0
SMALL
GASTEIGER

@<TRIPOS>ATOM
      1 O           5.4641   -1.0173    0.0000 O.3     1  UNL1       -0.3691
      2 O           2.8660   -0.5173    0.0000 O.3     1  UNL1       -0.3846
      3 O           6.3580    0.4480    0.0000 O.2     1  UNL1       -0.4217
      4 O           2.8660    0.4827    0.0000 O.3     1  UNL1       -0.4946
      5 O           8.1282    0.4585    0.0000 O.2     1  UNL1       -0.2452
      6 C           4.5981   -0.5173    0.0000 C.3     1  UNL1        0.1200
      7 C           4.5981    0.4827    0.0000 C.ar    1  UNL1        0.0684
      8 C           3.7320   -1.0173    0.0000 C.3     1  UNL1        0.1062
      9 C           5.4641    0.9827    0.0000 C.ar    1  UNL1        0.1483
     10 C           3.7320    0.9827    0.0000 C.ar    1  UNL1        0.1294
     11 C           3.7320   -2.0173    0.0000 C.2     1  UNL1       -0.0488
     12 C           5.4641    1.9827    0.0000 C.ar    1  UNL1        0.0182
     13 C           3.7320    1.9827    0.0000 C.ar    1  UNL1       -0.0188
     14 C           4.5981    2.4827    0.0000 C.ar    1  UNL1       -0.0476
     15 C           5.4641   -2.0173    0.0000 C.3     1  UNL1        0.0458
     16 C           2.8660   -2.5173    0.0000 C.3     1  UNL1       -0.0415
     17 C           6.3580    2.5173    0.0000 C.ar    1  UNL1       -0.0443
     18 C           4.5981   -2.5173    0.0000 C.2     1  UNL1       -0.0972
     19 C           7.2641    2.0035    0.0000 C.ar    1  UNL1        0.0236
     20 C           7.2641    0.9619    0.0000 C.ar    1  UNL1        0.3372
     21 C           6.3301   -2.5173    0.0000 C.3     1  UNL1       -0.0415
     22 C           2.0000    0.9827    0.0000 C.3     1  UNL1        0.0788
     23 H           4.5981   -1.1373    0.0000 H       1  UNL1        0.0678
     24 H           3.7320   -0.3973    0.0000 H       1  UNL1        0.0670
     25 H           3.1951    2.2927    0.0000 H       1  UNL1        0.0654
     26 H           4.5981    3.1027    0.0000 H       1  UNL1        0.0626
     27 H           4.8535   -1.9097    0.0000 H       1  UNL1        0.0557
     28 H           5.2520   -2.5999    0.0000 H       1  UNL1        0.0557
     29 H           2.5560   -1.9804    0.0000 H       1  UNL1        0.0275
     30 H           2.3291   -2.8273    0.0000 H       1  UNL1        0.0275
     31 H           3.1760   -3.0543    0.0000 H       1  UNL1        0.0275
     32 H           6.3509    3.1373    0.0000 H       1  UNL1        0.0627
     33 H           2.3291   -0.8273    0.0000 H       1  UNL1        0.2103
     34 H           4.5981   -3.1373    0.0000 H       1  UNL1        0.0535
     35 H           5.1350   -2.2073    0.0000 H       1  UNL1        0.0535
     36 H           7.7998    2.3156    0.0000 H       1  UNL1        0.0689
     37 H           6.0201   -3.0543    0.0000 H       1  UNL1        0.0252
     38 H           6.8671   -2.8273    0.0000 H       1  UNL1        0.0252
     39 H           6.6401   -1.9804    0.0000 H       1  UNL1        0.0252
     40 H           2.3100    1.5196    0.0000 H       1  UNL1        0.0660
     41 H           1.4631    1.2927    0.0000 H       1  UNL1        0.0660
     42 H           1.6900    0.4457    0.0000 H       1  UNL1        0.0660
@<TRIPOS>BOND
     1     1     6    1
     2     1    15    1
     3     2     8    1
     4     2    33    1
     5     3     9   ar
     6     3    20   ar
     7     4    10    1
     8     4    22    1
     9     5    20    2
    10     6     7    1
    11     6     8    1
    12     6    23    1
    13     7     9   ar
    14     7    10   ar
    15     8    11    1
    16     8    24    1
    17     9    12   ar
    18    10    13   ar
    19    11    16    1
    20    11    18    2
    21    12    14   ar
    22    12    17   ar
    23    13    14   ar
    24    13    25    1
    25    14    26    1
    26    15    21    1
    27    15    27    1
    28    15    28    1
    29    16    29    1
    30    16    30    1
    31    16    31    1
    32    17    19   ar
    33    17    32    1
    34    18    34    1
    35    18    35    1
    36    19    20   ar
    37    19    36    1
    38    21    37    1
    39    21    38    1
    40    21    39    1
    41    22    40    1
    42    22    41    1
    43    22    42    1
