@<TRIPOS>MOLECULE
IMPHY002027
 18 19 0 0 0
SMALL
GASTEIGER

@<TRIPOS>ATOM
      1 S           4.6783    0.8047    0.0000 S.2     1  UNL1       -0.0610
      2 S           6.2619    0.0000    0.0000 S.3     1  UNL1       -0.1022
      3 N           4.6783   -0.8047    0.0000 N.ar    1  UNL1       -0.2327
      4 C           3.7320    0.5000    0.0000 C.ar    1  UNL1        0.0400
      5 C           3.7320   -0.5000    0.0000 C.ar    1  UNL1        0.0795
      6 C           2.8660    1.0000    0.0000 C.ar    1  UNL1       -0.0459
      7 C           2.8660   -1.0000    0.0000 C.ar    1  UNL1       -0.0352
      8 C           5.2619    0.0000    0.0000 C.ar    1  UNL1        0.1355
      9 C           2.0000    0.5000    0.0000 C.ar    1  UNL1       -0.0606
     10 C           2.0000   -0.5000    0.0000 C.ar    1  UNL1       -0.0597
     11 C           6.7619   -0.8660    0.0000 C.3     1  UNL1       -0.0116
     12 H           2.8660    1.6200    0.0000 H       1  UNL1        0.0629
     13 H           2.8660   -1.6200    0.0000 H       1  UNL1        0.0639
     14 H           1.4631    0.8100    0.0000 H       1  UNL1        0.0618
     15 H           1.4631   -0.8100    0.0000 H       1  UNL1        0.0618
     16 H           6.2249   -1.1760    0.0000 H       1  UNL1        0.0344
     17 H           7.0719   -1.4030    0.0000 H       1  UNL1        0.0344
     18 H           7.2988   -0.5560    0.0000 H       1  UNL1        0.0344
@<TRIPOS>BOND
     1     1     4   ar
     2     1     8   ar
     3     2     8    1
     4     2    11    1
     5     3     5   ar
     6     3     8   ar
     7     4     5   ar
     8     4     6   ar
     9     5     7   ar
    10     6     9   ar
    11     6    12    1
    12     7    10   ar
    13     7    13    1
    14     9    10   ar
    15     9    14    1
    16    10    15    1
    17    11    16    1
    18    11    17    1
    19    11    18    1
