@<TRIPOS>MOLECULE
IMPHY008391
 109 114 0 0 0
SMALL
GASTEIGER

@<TRIPOS>ATOM
      1 O          10.7177    1.2001    0.0000 O.3     1  UNL1       -0.3446
      2 O           2.0000    5.3098    0.0000 O.2     1  UNL1       -0.3007
      3 O           9.8517   -0.2999    0.0000 O.3     1  UNL1       -0.3405
      4 O          12.4498    0.2001    0.0000 O.3     1  UNL1       -0.3841
      5 O          12.4498   -1.7999    0.0000 O.3     1  UNL1       -0.3864
      6 O          10.7177   -2.7999    0.0000 O.3     1  UNL1       -0.3865
      7 O           8.9857   -2.7999    0.0000 O.3     1  UNL1       -0.3460
      8 O           7.2536   -2.7999    0.0000 O.3     1  UNL1       -0.3405
      9 O           8.9857   -4.7999    0.0000 O.3     1  UNL1       -0.3841
     10 O           7.2536   -5.7999    0.0000 O.3     1  UNL1       -0.3864
     11 O           5.5216   -4.7999    0.0000 O.3     1  UNL1       -0.3865
     12 O           5.5216   -1.7999    0.0000 O.3     1  UNL1       -0.3924
     13 C           6.2298    4.8272    0.0000 C.3     1  UNL1       -0.0228
     14 C           5.3657    4.3239    0.0000 C.3     1  UNL1       -0.0229
     15 C           7.0977    4.3306    0.0000 C.3     1  UNL1       -0.0257
     16 C           7.1016    3.3306    0.0000 C.3     1  UNL1       -0.0219
     17 C           4.6261    4.9881    0.0000 C.3     1  UNL1       -0.0261
     18 C           5.3696    3.3239    0.0000 C.3     1  UNL1       -0.0463
     19 C           6.0168    5.7982    0.0000 C.3     1  UNL1       -0.0465
     20 C           6.2375    2.8272    0.0000 C.3     1  UNL1       -0.0463
     21 C           7.9976    2.7993    0.0000 C.3     1  UNL1       -0.0136
     22 C           5.0277    5.8974    0.0000 C.3     1  UNL1       -0.0486
     23 C           7.9896    4.8686    0.0000 C.3     1  UNL1       -0.0306
     24 C           7.0939    5.3305    0.0000 C.3     1  UNL1       -0.0588
     25 C           4.5016    3.8205    0.0000 C.3     1  UNL1       -0.0588
     26 C           8.9017    3.3167    0.0000 C.2     1  UNL1       -0.0617
     27 C           7.1054    2.3306    0.0000 C.3     1  UNL1       -0.0587
     28 C           3.6484    4.7781    0.0000 C.3     1  UNL1        0.0150
     29 C           7.9767    1.7146    0.0000 C.3     1  UNL1       -0.0436
     30 C           8.8976    4.3583    0.0000 C.2     1  UNL1       -0.0836
     31 C           9.8475    2.7851    0.0000 C.3     1  UNL1        0.0127
     32 C           8.9100    1.1612    0.0000 C.3     1  UNL1       -0.0251
     33 C           9.8517    1.7001    0.0000 C.3     1  UNL1        0.0706
     34 C           3.3414    3.8264    0.0000 C.3     1  UNL1       -0.0557
     35 C          10.3408    3.6549    0.0000 C.3     1  UNL1       -0.0537
     36 C          10.8475    2.7928    0.0000 C.3     1  UNL1       -0.0537
     37 C           2.9777    5.5198    0.0000 C.2     1  UNL1        0.1234
     38 C          10.7177    0.2001    0.0000 C.3     1  UNL1        0.1882
     39 C          11.5837   -0.2999    0.0000 C.3     1  UNL1        0.1341
     40 C          11.5837   -1.2999    0.0000 C.3     1  UNL1        0.1141
     41 C           9.8517   -1.2999    0.0000 C.3     1  UNL1        0.1134
     42 C          10.7177   -1.7999    0.0000 C.3     1  UNL1        0.1119
     43 C           8.9857   -1.7999    0.0000 C.3     1  UNL1        0.0796
     44 C           8.1196   -3.2999    0.0000 C.3     1  UNL1        0.1880
     45 C           8.1196   -4.2999    0.0000 C.3     1  UNL1        0.1341
     46 C           7.2536   -4.7999    0.0000 C.3     1  UNL1        0.1141
     47 C           6.3876   -3.2999    0.0000 C.3     1  UNL1        0.1130
     48 C           6.3876   -4.2999    0.0000 C.3     1  UNL1        0.1119
     49 C           5.5216   -2.7999    0.0000 C.3     1  UNL1        0.0730
     50 H           7.6382    4.0268    0.0000 H       1  UNL1        0.0315
     51 H           4.2347    5.4689    0.0000 H       1  UNL1        0.0313
     52 H           4.7586    3.4292    0.0000 H       1  UNL1        0.0271
     53 H           5.1598    2.7405    0.0000 H       1  UNL1        0.0271
     54 H           6.6330    5.8666    0.0000 H       1  UNL1        0.0271
     55 H           6.0136    6.4182    0.0000 H       1  UNL1        0.0271
     56 H           5.8408    2.3507    0.0000 H       1  UNL1        0.0271
     57 H           6.6378    2.3538    0.0000 H       1  UNL1        0.0271
     58 H           8.5309    2.4832    0.0000 H       1  UNL1        0.0351
     59 H           5.1541    6.5044    0.0000 H       1  UNL1        0.0268
     60 H           4.4374    6.0869    0.0000 H       1  UNL1        0.0268
     61 H           8.3814    5.3492    0.0000 H       1  UNL1        0.0310
     62 H           7.5832    5.3369    0.0000 H       1  UNL1        0.0310
     63 H           7.4060    4.7948    0.0000 H       1  UNL1        0.0235
     64 H           7.6296    5.6426    0.0000 H       1  UNL1        0.0235
     65 H           6.7818    5.8663    0.0000 H       1  UNL1        0.0235
     66 H           4.1895    4.3563    0.0000 H       1  UNL1        0.0235
     67 H           3.9659    3.5085    0.0000 H       1  UNL1        0.0235
     68 H           4.8137    3.2848    0.0000 H       1  UNL1        0.0235
     69 H           6.4854    2.3282    0.0000 H       1  UNL1        0.0235
     70 H           7.1078    1.7106    0.0000 H       1  UNL1        0.0235
     71 H           7.7254    2.3330    0.0000 H       1  UNL1        0.0235
     72 H           3.0422    4.6479    0.0000 H       1  UNL1        0.0375
     73 H           7.3680    1.8324    0.0000 H       1  UNL1        0.0272
     74 H           7.7564    1.1350    0.0000 H       1  UNL1        0.0272
     75 H           9.4322    4.6724    0.0000 H       1  UNL1        0.0572
     76 H           8.5072    0.6899    0.0000 H       1  UNL1        0.0291
     77 H           9.3054    0.6837    0.0000 H       1  UNL1        0.0291
     78 H           9.8505    1.0801    0.0000 H       1  UNL1        0.0605
     79 H           2.7514    4.0168    0.0000 H       1  UNL1        0.0236
     80 H           3.1511    3.2364    0.0000 H       1  UNL1        0.0236
     81 H           3.9315    3.6361    0.0000 H       1  UNL1        0.0236
     82 H          10.8801    3.3491    0.0000 H       1  UNL1        0.0239
     83 H          10.6467    4.1942    0.0000 H       1  UNL1        0.0239
     84 H           9.8015    3.9608    0.0000 H       1  UNL1        0.0239
     85 H          10.8523    2.1728    0.0000 H       1  UNL1        0.0239
     86 H          11.4675    2.7976    0.0000 H       1  UNL1        0.0239
     87 H          10.8427    3.4128    0.0000 H       1  UNL1        0.0239
     88 H           3.1680    6.1099    0.0000 H       1  UNL1        0.1029
     89 H          11.2547    0.5101    0.0000 H       1  UNL1        0.0937
     90 H          12.1207   -0.6099    0.0000 H       1  UNL1        0.0671
     91 H          11.5837   -1.9199    0.0000 H       1  UNL1        0.0648
     92 H           9.3148   -0.9899    0.0000 H       1  UNL1        0.0647
     93 H          11.2547   -2.1099    0.0000 H       1  UNL1        0.0647
     94 H          12.4498    0.8201    0.0000 H       1  UNL1        0.2101
     95 H           8.7736   -1.2173    0.0000 H       1  UNL1        0.0587
     96 H           8.3751   -1.9076    0.0000 H       1  UNL1        0.0587
     97 H          12.9867   -1.4899    0.0000 H       1  UNL1        0.2100
     98 H          11.2547   -3.1099    0.0000 H       1  UNL1        0.2100
     99 H           8.1196   -2.6799    0.0000 H       1  UNL1        0.0937
    100 H           8.1196   -4.9199    0.0000 H       1  UNL1        0.0671
    101 H           6.7167   -5.1099    0.0000 H       1  UNL1        0.0648
    102 H           6.3876   -2.6799    0.0000 H       1  UNL1        0.0647
    103 H           5.8506   -3.9899    0.0000 H       1  UNL1        0.0647
    104 H           9.5226   -4.4899    0.0000 H       1  UNL1        0.2101
    105 H           4.9110   -2.6922    0.0000 H       1  UNL1        0.0584
    106 H           5.3095   -3.3825    0.0000 H       1  UNL1        0.0584
    107 H           6.7167   -6.1099    0.0000 H       1  UNL1        0.2100
    108 H           4.9846   -4.4899    0.0000 H       1  UNL1        0.2100
    109 H           4.9846   -1.4899    0.0000 H       1  UNL1        0.2095
@<TRIPOS>BOND
     1     1    33    1
     2     1    38    1
     3     2    37    2
     4     3    38    1
     5     3    41    1
     6     4    39    1
     7     4    94    1
     8     5    40    1
     9     5    97    1
    10     6    42    1
    11     6    98    1
    12     7    43    1
    13     7    44    1
    14     8    44    1
    15     8    47    1
    16     9    45    1
    17     9   104    1
    18    10    46    1
    19    10   107    1
    20    11    48    1
    21    11   108    1
    22    12    49    1
    23    12   109    1
    24    13    14    1
    25    13    15    1
    26    13    19    1
    27    13    24    1
    28    14    17    1
    29    14    18    1
    30    14    25    1
    31    15    16    1
    32    15    23    1
    33    15    50    1
    34    16    20    1
    35    16    21    1
    36    16    27    1
    37    17    22    1
    38    17    28    1
    39    17    51    1
    40    18    20    1
    41    18    52    1
    42    18    53    1
    43    19    22    1
    44    19    54    1
    45    19    55    1
    46    20    56    1
    47    20    57    1
    48    21    26    1
    49    21    29    1
    50    21    58    1
    51    22    59    1
    52    22    60    1
    53    23    30    1
    54    23    61    1
    55    23    62    1
    56    24    63    1
    57    24    64    1
    58    24    65    1
    59    25    66    1
    60    25    67    1
    61    25    68    1
    62    26    30    2
    63    26    31    1
    64    27    69    1
    65    27    70    1
    66    27    71    1
    67    28    34    1
    68    28    37    1
    69    28    72    1
    70    29    32    1
    71    29    73    1
    72    29    74    1
    73    30    75    1
    74    31    33    1
    75    31    35    1
    76    31    36    1
    77    32    33    1
    78    32    76    1
    79    32    77    1
    80    33    78    1
    81    34    79    1
    82    34    80    1
    83    34    81    1
    84    35    82    1
    85    35    83    1
    86    35    84    1
    87    36    85    1
    88    36    86    1
    89    36    87    1
    90    37    88    1
    91    38    39    1
    92    38    89    1
    93    39    40    1
    94    39    90    1
    95    40    42    1
    96    40    91    1
    97    41    42    1
    98    41    43    1
    99    41    92    1
   100    42    93    1
   101    43    95    1
   102    43    96    1
   103    44    45    1
   104    44    99    1
   105    45    46    1
   106    45   100    1
   107    46    48    1
   108    46   101    1
   109    47    48    1
   110    47    49    1
   111    47   102    1
   112    48   103    1
   113    49   105    1
   114    49   106    1
