@<TRIPOS>MOLECULE
IMPHY010458
 54 56 0 0 0
SMALL
GASTEIGER

@<TRIPOS>ATOM
      1 O           7.1949    1.4782    0.0000 O.3     1  UNL1       -0.3396
      2 O           8.9510    0.9756    0.0000 O.3     1  UNL1       -0.3641
      3 O           6.6576   -2.3508    0.0000 O.3     1  UNL1       -0.4573
      4 O           6.7084    3.1493    0.0000 O.3     1  UNL1       -0.3888
      5 O           4.2704   -0.3230    0.0000 O.3     1  UNL1       -0.4603
      6 O           5.3598   -3.5637    0.0000 O.2     1  UNL1       -0.2453
      7 O           3.9696    1.3827    0.0000 O.2     1  UNL1       -0.2505
      8 C           6.1949    1.4782    0.0000 C.3     1  UNL1        0.0992
      9 C           7.9609    0.8354    0.0000 C.3     1  UNL1        0.1731
     10 C           6.9152    2.1709    0.0000 C.3     1  UNL1        0.0890
     11 C           8.1346   -0.1494    0.0000 C.3     1  UNL1        0.0136
     12 C           7.8544    1.8291    0.0000 C.3     1  UNL1        0.0302
     13 C           5.4288    0.8354    0.0000 C.3     1  UNL1        0.0165
     14 C           5.7552   -1.0154    0.0000 C.3     1  UNL1        0.0645
     15 C           5.2552   -0.1494    0.0000 C.3     1  UNL1        0.1161
     16 C           6.6949   -1.3574    0.0000 C.3     1  UNL1        0.1142
     17 C           7.6346   -1.0154    0.0000 C.3     1  UNL1       -0.0075
     18 C           5.5265    2.2221    0.0000 C.3     1  UNL1       -0.0331
     19 C           9.1194   -0.3230    0.0000 C.3     1  UNL1       -0.0574
     20 C           5.1452   -1.8003    0.0000 C.2     1  UNL1        0.0396
     21 C           5.7018   -2.6240    0.0000 C.2     1  UNL1        0.3354
     22 C           4.1458   -1.7672    0.0000 C.2     1  UNL1       -0.0882
     23 C           3.6276    0.4430    0.0000 C.2     1  UNL1        0.3099
     24 C           2.6428    0.2694    0.0000 C.3     1  UNL1        0.0508
     25 C           2.0000    1.0354    0.0000 C.3     1  UNL1       -0.0525
     26 C           2.3008   -0.6703    0.0000 C.3     1  UNL1       -0.0525
     27 H           7.3834    2.5774    0.0000 H       1  UNL1        0.0624
     28 H           8.3966   -0.7113    0.0000 H       1  UNL1        0.0351
     29 H           8.4737    1.8012    0.0000 H       1  UNL1        0.0343
     30 H           7.9758    2.4371    0.0000 H       1  UNL1        0.0343
     31 H           5.1833    1.4047    0.0000 H       1  UNL1        0.0330
     32 H           4.8130    0.7634    0.0000 H       1  UNL1        0.0330
     33 H           4.9564   -0.7247    0.0000 H       1  UNL1        0.0423
     34 H           4.8168    0.2890    0.0000 H       1  UNL1        0.0742
     35 H           7.4936   -1.6481    0.0000 H       1  UNL1        0.0741
     36 H           7.6706   -1.6344    0.0000 H       1  UNL1        0.0305
     37 H           8.2379   -1.1584    0.0000 H       1  UNL1        0.0305
     38 H           5.9877    2.6364    0.0000 H       1  UNL1        0.0258
     39 H           5.1122    2.6832    0.0000 H       1  UNL1        0.0258
     40 H           5.0653    1.8077    0.0000 H       1  UNL1        0.0258
     41 H           9.0117   -0.9336    0.0000 H       1  UNL1        0.0234
     42 H           9.7300   -0.4307    0.0000 H       1  UNL1        0.0234
     43 H           9.2270    0.2876    0.0000 H       1  UNL1        0.0234
     44 H           9.1827    1.5507    0.0000 H       1  UNL1        0.2128
     45 H           7.1696    3.5637    0.0000 H       1  UNL1        0.2099
     46 H           3.8537   -1.2202    0.0000 H       1  UNL1        0.0540
     47 H           3.8181   -2.2935    0.0000 H       1  UNL1        0.0540
     48 H           3.0413   -0.2056    0.0000 H       1  UNL1        0.0408
     49 H           2.4750    1.4339    0.0000 H       1  UNL1        0.0237
     50 H           1.6015    1.5104    0.0000 H       1  UNL1        0.0237
     51 H           1.7182   -0.4583    0.0000 H       1  UNL1        0.0237
     52 H           2.0887   -1.2529    0.0000 H       1  UNL1        0.0237
     53 H           2.8834   -0.8824    0.0000 H       1  UNL1        0.0237
     54 H           1.5250    0.6369    0.0000 H       1  UNL1        0.0237
@<TRIPOS>BOND
     1     1     8    1
     2     1     9    1
     3     2     9    1
     4     2    44    1
     5     3    16    1
     6     3    21    1
     7    10     4    1
     8     4    45    1
     9    15     5    1
    10     5    23    1
    11     6    21    2
    12     7    23    2
    13     8    10    1
    14     8    13    1
    15     8    18    1
    16     9    11    1
    17     9    12    1
    18    10    12    1
    19    10    27    1
    20    11    17    1
    21    11    19    1
    22    11    28    1
    23    12    29    1
    24    12    30    1
    25    13    15    1
    26    13    31    1
    27    13    32    1
    28    14    15    1
    29    14    16    1
    30    14    20    1
    31    14    33    1
    32    15    34    1
    33    16    17    1
    34    16    35    1
    35    17    36    1
    36    17    37    1
    37    18    38    1
    38    18    39    1
    39    18    40    1
    40    19    41    1
    41    19    42    1
    42    19    43    1
    43    20    21    1
    44    20    22    2
    45    22    46    1
    46    22    47    1
    47    23    24    1
    48    24    25    1
    49    24    26    1
    50    24    48    1
    51    25    49    1
    52    25    50    1
    53    25    54    1
    54    26    51    1
    55    26    52    1
    56    26    53    1
