@<TRIPOS>MOLECULE
IMPHY016292
 20 18 0 0 0
SMALL
GASTEIGER

@<TRIPOS>ATOM
      1 O           3.1350    1.4030    0.0000 O.3     1  UNL1       -0.4802
      2 O           2.2690    2.9030    0.0000 O.2     1  UNL1       -0.2504
      3 O           1.8360    4.9030    0.0000 O.3     2  HOH2       -0.4105
      4 C           1.4030    1.4030    0.0000 C.3     1  UNL1        0.0592
      5 C           0.5369    0.9030    0.0000 C.3     1  UNL1       -0.0499
      6 C           0.9030    2.2690    0.0000 C.3     1  UNL1       -0.0499
      7 C           1.9030    0.5369    0.0000 C.3     1  UNL1       -0.0499
      8 C           2.2690    1.9030    0.0000 C.2     1  UNL1        0.3101
      9 H           0.2269    1.4399    0.0000 H       1  UNL1        0.0240
     10 H           0.0000    0.5930    0.0000 H       1  UNL1        0.0240
     11 H           0.8469    0.3660    0.0000 H       1  UNL1        0.0240
     12 H           1.4399    2.5790    0.0000 H       1  UNL1        0.0240
     13 H           0.5930    2.8059    0.0000 H       1  UNL1        0.0240
     14 H           0.3660    1.9590    0.0000 H       1  UNL1        0.0240
     15 H           1.3660    0.2269    0.0000 H       1  UNL1        0.0240
     16 H           2.2130    0.0000    0.0000 H       1  UNL1        0.0240
     17 H           2.4399    0.8469    0.0000 H       1  UNL1        0.0240
     18 H           3.6720    1.7130    0.0000 H       1  UNL1        0.2951
     19 H           2.3729    5.2130    0.0000 H       0  HOH0        0.2052
     20 H           1.2990    5.2130    0.0000 H       0  HOH0        0.2052
@<TRIPOS>BOND
     1     1     8    1
     2     1    18    1
     3     2     8    2
     4     3    19    1
     5     3    20    1
     6     4     5    1
     7     4     6    1
     8     4     7    1
     9     4     8    1
    10     5     9    1
    11     5    10    1
    12     5    11    1
    13     6    12    1
    14     6    13    1
    15     6    14    1
    16     7    15    1
    17     7    16    1
    18     7    17    1
