@<TRIPOS>MOLECULE
IMPHY004267
 30 35 0 0 0
SMALL
GASTEIGER

@<TRIPOS>ATOM
      1 O           5.5954   -2.2515    0.0000 O.3     1  UNL1       -0.3368
      2 O           3.9301   -1.1704    0.0000 O.3     1  UNL1       -0.3343
      3 O          12.0027    3.1277    0.0000 O.2     1  UNL1       -0.2961
      4 C           6.6628   -0.0167    0.0000 C.3     1  UNL1        0.0025
      5 C           7.5288   -0.5167    0.0000 C.3     1  UNL1        0.0025
      6 C           5.9258   -0.6838    0.0000 C.3     1  UNL1        0.0320
      7 C           8.3948   -0.0167    0.0000 C.3     1  UNL1        0.0001
      8 C           8.3948    0.9833    0.0000 C.3     1  UNL1        0.0000
      9 C           6.3309   -1.5916    0.0000 C.3     1  UNL1        0.1177
     10 C           7.3196   -1.4885    0.0000 C.3     1  UNL1        0.0296
     11 C           9.2888    1.5180    0.0000 C.3     1  UNL1        0.0008
     12 C           6.6628    0.9833    0.0000 C.3     1  UNL1        0.0001
     13 C           4.9434   -0.7905    0.0000 C.3     1  UNL1        0.0539
     14 C           7.5288    1.4833    0.0000 C.3     1  UNL1        0.0000
     15 C           9.2888   -0.5514    0.0000 C.3     1  UNL1        0.0000
     16 C          10.1949    1.0041    0.0000 C.3     1  UNL1        0.0073
     17 C           4.7396   -1.7574    0.0000 C.3     1  UNL1        0.1868
     18 C           5.7968    0.4833    0.0000 C.3     1  UNL1        0.0001
     19 C          10.1949   -0.0375    0.0000 C.3     1  UNL1        0.0004
     20 C           9.2637    2.6027    0.0000 C.3     1  UNL1        0.0078
     21 C           8.4189    2.0113    0.0000 C.3     1  UNL1        0.0000
     22 C          11.1386    1.5393    0.0000 C.3     1  UNL1        0.0645
     23 C           4.2723   -0.0491    0.0000 C.3     1  UNL1        0.0051
     24 C           4.6359   -2.7521    0.0000 C.3     1  UNL1        0.0563
     25 C          10.1949    3.1596    0.0000 C.3     1  UNL1        0.0645
     26 C          11.1386    2.6243    0.0000 C.2     1  UNL1        0.1506
     27 C           3.7227   -3.1596    0.0000 C.3     1  UNL1        0.0075
     28 C           3.0169   -1.5779    0.0000 C.3     1  UNL1        0.1446
     29 C           2.9132   -2.5725    0.0000 C.3     1  UNL1        0.0299
     30 C           2.0000   -2.9800    0.0000 C.3     1  UNL1        0.0026
@<TRIPOS>BOND
     1     1     9    1
     2     1    17    1
     3     2    17    1
     4     2    28    1
     5     3    26    2
     6     4     5    1
     7     4     6    1
     8     4    12    1
     9     4    18    1
    10     5     7    1
    11     5    10    1
    12     6     9    1
    13     6    13    1
    14     7     8    1
    15     7    15    1
    16     8    11    1
    17     8    14    1
    18     9    10    1
    19    11    16    1
    20    11    20    1
    21    11    21    1
    22    12    14    1
    23    13    17    1
    24    13    23    1
    25    15    19    1
    26    16    19    1
    27    16    22    1
    28    17    24    1
    29    20    25    1
    30    22    26    1
    31    24    27    1
    32    25    26    1
    33    27    29    1
    34    28    29    1
    35    29    30    1
