@<TRIPOS>MOLECULE
IMPHY008942
 72 74 0 0 0
SMALL
GASTEIGER

@<TRIPOS>ATOM
      1 O           5.1350   -2.5950    0.0000 O.3     1  UNL1       -0.3313
      2 O           6.8671   -2.5950    0.0000 O.3     1  UNL1       -0.4572
      3 O           5.1350   -5.5950    0.0000 O.3     1  UNL1       -0.3864
      4 O           3.4030   -4.5950    0.0000 O.3     1  UNL1       -0.3865
      5 O           6.8671   -4.5950    0.0000 O.3     1  UNL1       -0.3829
      6 O           2.5369   -3.0950    0.0000 O.3     1  UNL1       -0.3924
      7 O           5.1350   -1.5950    0.0000 O.3     1  UNL1       -0.4914
      8 O           7.7331    2.9050    0.0000 O.3     1  UNL1       -0.4800
      9 O           6.0010    1.9050    0.0000 O.3     1  UNL1       -0.3834
     10 O           9.4651    1.9050    0.0000 O.3     1  UNL1       -0.3913
     11 O           7.7331    4.9050    0.0000 O.3     1  UNL1       -0.4914
     12 O          13.7953    4.4050    0.0000 O.3     1  UNL1       -0.3910
     13 C           5.1350   -4.5950    0.0000 C.3     1  UNL1        0.1152
     14 C           4.2690   -4.0950    0.0000 C.3     1  UNL1        0.1120
     15 C           6.0010   -4.0950    0.0000 C.3     1  UNL1        0.1454
     16 C           4.2690   -3.0950    0.0000 C.3     1  UNL1        0.1140
     17 C           6.0010   -3.0950    0.0000 C.3     1  UNL1        0.2310
     18 C           3.4030   -2.5950    0.0000 C.3     1  UNL1        0.0731
     19 C           6.8671   -1.5950    0.0000 C.ar    1  UNL1        0.1654
     20 C           6.0010   -1.0950    0.0000 C.ar    1  UNL1        0.1620
     21 C           6.8671    1.4050    0.0000 C.3     1  UNL1        0.1192
     22 C           6.8671    0.4050    0.0000 C.ar    1  UNL1       -0.0119
     23 C           7.7331   -1.0950    0.0000 C.ar    1  UNL1       -0.0158
     24 C           7.7331    1.9050    0.0000 C.3     1  UNL1        0.1530
     25 C           6.0010   -0.0950    0.0000 C.ar    1  UNL1       -0.0106
     26 C           7.7331   -0.0950    0.0000 C.ar    1  UNL1       -0.0523
     27 C           8.5991    1.4050    0.0000 C.3     1  UNL1        0.0839
     28 C           8.5991    3.4050    0.0000 C.ar    1  UNL1        0.1626
     29 C           4.2690   -1.0950    0.0000 C.3     1  UNL1        0.0790
     30 C           8.5991    4.4050    0.0000 C.ar    1  UNL1        0.1621
     31 C           9.4651    2.9050    0.0000 C.ar    1  UNL1       -0.0157
     32 C           9.4651    4.9050    0.0000 C.ar    1  UNL1       -0.0092
     33 C          10.3312    4.4050    0.0000 C.ar    1  UNL1       -0.0216
     34 C          10.3312    3.4050    0.0000 C.ar    1  UNL1       -0.0509
     35 C          11.1972    4.9050    0.0000 C.2     1  UNL1       -0.0563
     36 C           7.7331    5.9050    0.0000 C.3     1  UNL1        0.0790
     37 C          12.0632    4.4050    0.0000 C.2     1  UNL1       -0.0584
     38 C          12.9292    4.9050    0.0000 C.3     1  UNL1        0.0627
     39 H           5.6720   -4.9050    0.0000 H       1  UNL1        0.0648
     40 H           4.2690   -4.7150    0.0000 H       1  UNL1        0.0647
     41 H           6.5380   -3.7850    0.0000 H       1  UNL1        0.0683
     42 H           4.2690   -2.4750    0.0000 H       1  UNL1        0.0647
     43 H           6.0010   -2.4750    0.0000 H       1  UNL1        0.1084
     44 H           3.8015   -2.1200    0.0000 H       1  UNL1        0.0584
     45 H           3.0044   -2.1200    0.0000 H       1  UNL1        0.0584
     46 H           4.5981   -5.9050    0.0000 H       1  UNL1        0.2100
     47 H           3.4030   -5.2150    0.0000 H       1  UNL1        0.2100
     48 H           6.8671   -5.2150    0.0000 H       1  UNL1        0.2102
     49 H           2.0000   -2.7850    0.0000 H       1  UNL1        0.2095
     50 H           6.3301    1.0950    0.0000 H       1  UNL1        0.0682
     51 H           8.2700   -1.4050    0.0000 H       1  UNL1        0.0655
     52 H           7.1962    2.2150    0.0000 H       1  UNL1        0.0786
     53 H           5.4641    0.2150    0.0000 H       1  UNL1        0.0659
     54 H           8.2700    0.2150    0.0000 H       1  UNL1        0.0622
     55 H           8.2006    0.9301    0.0000 H       1  UNL1        0.0595
     56 H           8.9976    0.9301    0.0000 H       1  UNL1        0.0595
     57 H           6.0010    2.5250    0.0000 H       1  UNL1        0.2104
     58 H           4.5790   -0.5581    0.0000 H       1  UNL1        0.0660
     59 H           3.7320   -0.7850    0.0000 H       1  UNL1        0.0660
     60 H           3.9590   -1.6319    0.0000 H       1  UNL1        0.0660
     61 H          10.0021    1.5950    0.0000 H       1  UNL1        0.2096
     62 H           9.4651    2.2850    0.0000 H       1  UNL1        0.0655
     63 H           9.4651    5.5250    0.0000 H       1  UNL1        0.0661
     64 H          10.8681    3.0950    0.0000 H       1  UNL1        0.0625
     65 H          11.1972    5.5250    0.0000 H       1  UNL1        0.0621
     66 H           8.3531    5.9050    0.0000 H       1  UNL1        0.0660
     67 H           7.7331    6.5250    0.0000 H       1  UNL1        0.0660
     68 H           7.1131    5.9050    0.0000 H       1  UNL1        0.0660
     69 H          12.0632    3.7850    0.0000 H       1  UNL1        0.0595
     70 H          13.3278    5.3800    0.0000 H       1  UNL1        0.0601
     71 H          12.5307    5.3800    0.0000 H       1  UNL1        0.0601
     72 H          14.3322    4.7150    0.0000 H       1  UNL1        0.2098
@<TRIPOS>BOND
     1     1    16    1
     2     1    17    1
     3    17     2    1
     4     2    19    1
     5    13     3    1
     6     3    46    1
     7    14     4    1
     8     4    47    1
     9    15     5    1
    10     5    48    1
    11     6    18    1
    12     6    49    1
    13     7    20    1
    14     7    29    1
    15     8    24    1
    16     8    28    1
    17     9    21    1
    18     9    57    1
    19    10    27    1
    20    10    61    1
    21    11    30    1
    22    11    36    1
    23    12    38    1
    24    12    72    1
    25    13    14    1
    26    13    15    1
    27    13    39    1
    28    14    16    1
    29    14    40    1
    30    15    17    1
    31    15    41    1
    32    16    18    1
    33    16    42    1
    34    17    43    1
    35    18    44    1
    36    18    45    1
    37    19    20   ar
    38    19    23   ar
    39    20    25   ar
    40    21    22    1
    41    21    24    1
    42    21    50    1
    43    22    25   ar
    44    22    26   ar
    45    23    26   ar
    46    23    51    1
    47    24    27    1
    48    24    52    1
    49    25    53    1
    50    26    54    1
    51    27    55    1
    52    27    56    1
    53    28    30   ar
    54    28    31   ar
    55    29    58    1
    56    29    59    1
    57    29    60    1
    58    30    32   ar
    59    31    34   ar
    60    31    62    1
    61    32    33   ar
    62    32    63    1
    63    33    34   ar
    64    33    35    1
    65    34    64    1
    66    35    37    2
    67    35    65    1
    68    36    66    1
    69    36    67    1
    70    36    68    1
    71    37    38    1
    72    37    69    1
    73    38    70    1
    74    38    71    1
