@<TRIPOS>MOLECULE
IMPHY005099
 45 48 0 0 0
SMALL
GASTEIGER

@<TRIPOS>ATOM
      1 O           5.6834   -0.0506    0.0000 O.3     1  UNL1       -0.4811
      2 O           8.0264   -1.2795    0.0000 O.3     1  UNL1       -0.3875
      3 O           5.1645   -3.5142    0.0000 O.3     1  UNL1       -0.5063
      4 O           2.3884   -1.3178    0.0000 O.3     1  UNL1       -0.5065
      5 O           8.4931    3.5816    0.0000 O.3     1  UNL1       -0.5027
      6 O           6.6722    3.1660    0.0000 O.2     1  UNL1       -0.2840
      7 O           9.9348    3.5178    0.0000 O.3     1  UNL1       -0.5027
      8 O          11.7165    0.4590    0.0000 O.3     1  UNL1       -0.5032
      9 O          11.7165    2.5074    0.0000 O.3     1  UNL1       -0.5009
     10 C           6.6722   -0.1996    0.0000 C.3     1  UNL1        0.1513
     11 C           7.0375   -1.1305    0.0000 C.3     1  UNL1        0.1004
     12 C           6.4140   -1.9123    0.0000 C.3     1  UNL1        0.0092
     13 C           5.4252   -1.7633    0.0000 C.ar    1  UNL1        0.0384
     14 C           7.2957    0.5822    0.0000 C.ar    1  UNL1       -0.0005
     15 C           5.0599   -0.8324    0.0000 C.ar    1  UNL1        0.1317
     16 C           8.2706    0.3597    0.0000 C.ar    1  UNL1       -0.0468
     17 C           4.7884   -2.5876    0.0000 C.ar    1  UNL1        0.1270
     18 C           6.8618    1.4832    0.0000 C.ar    1  UNL1       -0.0045
     19 C           9.0524    0.9832    0.0000 C.ar    1  UNL1       -0.0067
     20 C           4.0324   -0.6613    0.0000 C.ar    1  UNL1        0.0221
     21 C           9.0524    1.9832    0.0000 C.ar    1  UNL1        0.0726
     22 C           3.7572   -2.4403    0.0000 C.ar    1  UNL1        0.0218
     23 C           3.3767   -1.4706    0.0000 C.ar    1  UNL1        0.1238
     24 C           7.2957    2.3842    0.0000 C.ar    1  UNL1        0.2211
     25 C           8.2706    2.6067    0.0000 C.ar    1  UNL1        0.1751
     26 C           9.9464    0.4485    0.0000 C.ar    1  UNL1       -0.0084
     27 C           9.9464    2.5179    0.0000 C.ar    1  UNL1        0.1735
     28 C          10.8524    0.9624    0.0000 C.ar    1  UNL1        0.1626
     29 C          10.8524    2.0040    0.0000 C.ar    1  UNL1        0.2013
     30 H           6.4457    0.3775    0.0000 H       1  UNL1        0.0811
     31 H           7.4241   -0.6457    0.0000 H       1  UNL1        0.0637
     32 H           6.2166   -2.5000    0.0000 H       1  UNL1        0.0342
     33 H           6.9585   -2.2088    0.0000 H       1  UNL1        0.0342
     34 H           8.4086   -0.2447    0.0000 H       1  UNL1        0.0628
     35 H           6.2418    1.4832    0.0000 H       1  UNL1        0.0661
     36 H           3.8126   -0.0816    0.0000 H       1  UNL1        0.0691
     37 H           8.2529   -1.8567    0.0000 H       1  UNL1        0.2100
     38 H           3.3725   -2.9265    0.0000 H       1  UNL1        0.0691
     39 H           9.9392   -0.1714    0.0000 H       1  UNL1        0.0661
     40 H           4.7835   -4.0033    0.0000 H       1  UNL1        0.2921
     41 H           2.0000   -1.8010    0.0000 H       1  UNL1        0.2921
     42 H           8.0386    4.0033    0.0000 H       1  UNL1        0.2923
     43 H          10.4681    3.8340    0.0000 H       1  UNL1        0.2923
     44 H          11.7141   -0.1609    0.0000 H       1  UNL1        0.2923
     45 H          12.2547    2.1994    0.0000 H       1  UNL1        0.2924
@<TRIPOS>BOND
     1     1    10    1
     2     1    15    1
     3    11     2    1
     4     2    37    1
     5     3    17    1
     6     3    40    1
     7     4    23    1
     8     4    41    1
     9     5    25    1
    10     5    42    1
    11     6    24    2
    12     7    27    1
    13     7    43    1
    14     8    28    1
    15     8    44    1
    16     9    29    1
    17     9    45    1
    18    10    11    1
    19    10    14    1
    20    10    30    1
    21    11    12    1
    22    11    31    1
    23    12    13    1
    24    12    32    1
    25    12    33    1
    26    13    15   ar
    27    13    17   ar
    28    14    16   ar
    29    14    18   ar
    30    15    20   ar
    31    16    19   ar
    32    16    34    1
    33    17    22   ar
    34    18    24   ar
    35    18    35    1
    36    19    21   ar
    37    19    26   ar
    38    20    23   ar
    39    20    36    1
    40    21    25   ar
    41    21    27   ar
    42    22    23   ar
    43    22    38    1
    44    24    25   ar
    45    26    28   ar
    46    26    39    1
    47    27    29   ar
    48    28    29   ar
