@<TRIPOS>MOLECULE
IMPHY008958
 80 82 0 0 0
SMALL
GASTEIGER

@<TRIPOS>ATOM
      1 O          12.9196    2.3068    0.0000 O.3     1  UNL1       -0.4679
      2 O          12.0363    0.8169    0.0000 O.2     1  UNL1       -0.2509
      3 O           3.3357   -4.4236    0.0000 O.3     1  UNL1       -0.4774
      4 O           4.6249   -3.2668    0.0000 O.2     1  UNL1       -0.2455
      5 C           6.8137    0.8400    0.0000 C.3     1  UNL1       -0.0196
      6 C           6.8137    1.8400    0.0000 C.3     1  UNL1       -0.0052
      7 C           5.8675    0.5352    0.0000 C.3     1  UNL1       -0.0322
      8 C           5.8675    2.1447    0.0000 C.3     1  UNL1       -0.0431
      9 C           5.2839    1.3400    0.0000 C.3     1  UNL1       -0.0486
     10 C           7.6798    0.3400    0.0000 C.3     1  UNL1       -0.0429
     11 C           7.6798    2.3400    0.0000 C.2     1  UNL1       -0.0636
     12 C           8.5458    1.8400    0.0000 C.2     1  UNL1       -0.0661
     13 C           5.5568   -0.4153    0.0000 C.3     1  UNL1       -0.0402
     14 C           8.5458    0.8400    0.0000 C.3     1  UNL1       -0.0307
     15 C           6.8137   -0.1600    0.0000 C.3     1  UNL1       -0.0585
     16 C           6.8137    2.8400    0.0000 C.3     1  UNL1       -0.0553
     17 C           9.4558    2.3468    0.0000 C.3     1  UNL1       -0.0126
     18 C           7.6637    3.3815    0.0000 C.3     1  UNL1       -0.0304
     19 C           9.4638    3.3884    0.0000 C.3     1  UNL1       -0.0136
     20 C           8.5617    3.9092    0.0000 C.3     1  UNL1       -0.0423
     21 C           4.5783   -0.6215    0.0000 C.3     1  UNL1       -0.0467
     22 C           6.2247   -1.1596    0.0000 C.3     1  UNL1       -0.0621
     23 C          10.3160    1.8368    0.0000 C.3     1  UNL1       -0.0359
     24 C          10.3318    3.8851    0.0000 C.2     1  UNL1       -0.0760
     25 C           4.2677   -1.5720    0.0000 C.3     1  UNL1       -0.0338
     26 C          11.1877    2.3268    0.0000 C.3     1  UNL1        0.0455
     27 C          10.3356    4.8851    0.0000 C.3     1  UNL1       -0.0438
     28 C          11.1958    3.3817    0.0000 C.2     1  UNL1       -0.0994
     29 C           3.2892   -1.7782    0.0000 C.2     1  UNL1       -0.0743
     30 C          12.0479    1.8168    0.0000 C.2     1  UNL1        0.3068
     31 C           2.9785   -2.7288    0.0000 C.2     1  UNL1        0.0294
     32 C           2.0000   -2.9350    0.0000 C.3     1  UNL1       -0.0332
     33 C           3.6464   -3.4731    0.0000 C.2     1  UNL1        0.3322
     34 C          13.7798    1.7968    0.0000 C.3     1  UNL1        0.0817
     35 H           5.0278    0.4034    0.0000 H       1  UNL1        0.0309
     36 H           6.1185    2.7116    0.0000 H       1  UNL1        0.0274
     37 H           5.3301    2.4539    0.0000 H       1  UNL1        0.0274
     38 H           4.8230    1.7547    0.0000 H       1  UNL1        0.0268
     39 H           4.8230    0.9252    0.0000 H       1  UNL1        0.0268
     40 H           7.2812   -0.1350    0.0000 H       1  UNL1        0.0274
     41 H           8.0783   -0.1350    0.0000 H       1  UNL1        0.0274
     42 H           5.3642   -1.0046    0.0000 H       1  UNL1        0.0301
     43 H           8.7578    0.2574    0.0000 H       1  UNL1        0.0310
     44 H           9.1564    0.9476    0.0000 H       1  UNL1        0.0310
     45 H           6.1937   -0.1600    0.0000 H       1  UNL1        0.0235
     46 H           6.8137   -0.7800    0.0000 H       1  UNL1        0.0235
     47 H           7.4337   -0.1600    0.0000 H       1  UNL1        0.0235
     48 H           7.4337    2.8400    0.0000 H       1  UNL1        0.0238
     49 H           6.8137    3.4600    0.0000 H       1  UNL1        0.0238
     50 H           6.1937    2.8400    0.0000 H       1  UNL1        0.0238
     51 H           9.4474    1.7269    0.0000 H       1  UNL1        0.0352
     52 H           7.4457    3.9619    0.0000 H       1  UNL1        0.0310
     53 H           7.0545    3.2660    0.0000 H       1  UNL1        0.0310
     54 H           9.9989    3.0753    0.0000 H       1  UNL1        0.0351
     55 H           8.9590    4.3852    0.0000 H       1  UNL1        0.0274
     56 H           8.1608    4.3821    0.0000 H       1  UNL1        0.0274
     57 H           4.5578   -0.0019    0.0000 H       1  UNL1        0.0271
     58 H           3.9645   -0.5342    0.0000 H       1  UNL1        0.0271
     59 H           5.7632   -1.5737    0.0000 H       1  UNL1        0.0233
     60 H           6.6388   -1.6211    0.0000 H       1  UNL1        0.0233
     61 H           6.6862   -0.7455    0.0000 H       1  UNL1        0.0233
     62 H           9.9120    1.3665    0.0000 H       1  UNL1        0.0276
     63 H          10.7090    1.3573    0.0000 H       1  UNL1        0.0276
     64 H           4.2882   -2.1917    0.0000 H       1  UNL1        0.0308
     65 H           4.8815   -1.6594    0.0000 H       1  UNL1        0.0308
     66 H          11.5917    2.7971    0.0000 H       1  UNL1        0.0378
     67 H          10.7947    2.8063    0.0000 H       1  UNL1        0.0378
     68 H          10.9556    4.8827    0.0000 H       1  UNL1        0.0274
     69 H          10.3380    5.5050    0.0000 H       1  UNL1        0.0274
     70 H           9.7156    4.8874    0.0000 H       1  UNL1        0.0274
     71 H          11.1935    2.7617    0.0000 H       1  UNL1        0.0534
     72 H          11.7340    3.6897    0.0000 H       1  UNL1        0.0534
     73 H           2.8751   -1.3168    0.0000 H       1  UNL1        0.0577
     74 H           1.8721   -2.3283    0.0000 H       1  UNL1        0.0280
     75 H           1.3933   -3.0628    0.0000 H       1  UNL1        0.0280
     76 H           2.1279   -3.5417    0.0000 H       1  UNL1        0.0280
     77 H          13.4636    1.2635    0.0000 H       1  UNL1        0.0661
     78 H          14.3131    1.4806    0.0000 H       1  UNL1        0.0661
     79 H          14.0960    2.3301    0.0000 H       1  UNL1        0.0661
     80 H           3.7498   -4.8851    0.0000 H       1  UNL1        0.2954
@<TRIPOS>BOND
     1     1    30    1
     2     1    34    1
     3     2    30    2
     4     3    33    1
     5     3    80    1
     6     4    33    2
     7     5     6    1
     8     5     7    1
     9     5    10    1
    10     5    15    1
    11     6     8    1
    12     6    11    1
    13     6    16    1
    14     7     9    1
    15     7    13    1
    16     7    35    1
    17     8     9    1
    18     8    36    1
    19     8    37    1
    20     9    38    1
    21     9    39    1
    22    10    14    1
    23    10    40    1
    24    10    41    1
    25    11    12    2
    26    11    18    1
    27    12    14    1
    28    12    17    1
    29    13    21    1
    30    13    22    1
    31    13    42    1
    32    14    43    1
    33    14    44    1
    34    15    45    1
    35    15    46    1
    36    15    47    1
    37    16    48    1
    38    16    49    1
    39    16    50    1
    40    17    19    1
    41    17    23    1
    42    17    51    1
    43    18    20    1
    44    18    52    1
    45    18    53    1
    46    19    20    1
    47    19    24    1
    48    19    54    1
    49    20    55    1
    50    20    56    1
    51    21    25    1
    52    21    57    1
    53    21    58    1
    54    22    59    1
    55    22    60    1
    56    22    61    1
    57    23    26    1
    58    23    62    1
    59    23    63    1
    60    24    27    1
    61    24    28    2
    62    25    29    1
    63    25    64    1
    64    25    65    1
    65    26    30    1
    66    26    66    1
    67    26    67    1
    68    27    68    1
    69    27    69    1
    70    27    70    1
    71    28    71    1
    72    28    72    1
    73    29    31    2
    74    29    73    1
    75    31    32    1
    76    31    33    1
    77    32    74    1
    78    32    75    1
    79    32    76    1
    80    34    77    1
    81    34    78    1
    82    34    79    1
