@<TRIPOS>MOLECULE
IMPHY005040
 82 87 0 0 0
SMALL
GASTEIGER

@<TRIPOS>ATOM
      1 O          10.9593    2.8012    0.0000 O.3     1  UNL1       -0.4577
      2 O           2.5357   -1.9391    0.0000 O.3     1  UNL1       -0.3912
      3 O          11.8253    1.3012    0.0000 O.2     1  UNL1       -0.2502
      4 O           4.4299   -3.7630    0.0000 O.3     1  UNL1       -0.3944
      5 C           8.3092    0.2527    0.0000 C.3     1  UNL1       -0.0233
      6 C           7.3738   -0.2970    0.0000 C.3     1  UNL1       -0.0231
      7 C           8.3172    1.2943    0.0000 C.3     1  UNL1       -0.0309
      8 C           6.4342    0.2455    0.0000 C.3     1  UNL1       -0.0294
      9 C           9.2273    1.8012    0.0000 C.3     1  UNL1       -0.0157
     10 C           5.4468   -0.3044    0.0000 C.3     1  UNL1       -0.0252
     11 C          10.0933    1.3012    0.0000 C.3     1  UNL1        0.0714
     12 C           5.4381   -1.4346    0.0000 C.3     1  UNL1       -0.0255
     13 C           9.2113   -0.2681    0.0000 C.3     1  UNL1       -0.0458
     14 C           7.3904    1.8584    0.0000 C.3     1  UNL1       -0.0491
     15 C           7.3912   -1.4270    0.0000 C.3     1  UNL1       -0.0466
     16 C           6.4425    1.3305    0.0000 C.3     1  UNL1       -0.0489
     17 C           9.2273    2.8012    0.0000 C.3     1  UNL1        0.0000
     18 C          10.1093    0.2597    0.0000 C.3     1  UNL1       -0.0364
     19 C           6.4169   -1.9996    0.0000 C.3     1  UNL1       -0.0485
     20 C           4.4232   -2.0310    0.0000 C.3     1  UNL1        0.0203
     21 C          10.0933    3.3012    0.0000 C.3     1  UNL1        0.1136
     22 C           4.4412    0.3076    0.0000 C.3     1  UNL1       -0.0447
     23 C           9.6933    1.9012    0.0000 C.3     1  UNL1       -0.0334
     24 C           8.6441   -0.6895    0.0000 C.3     1  UNL1       -0.0588
     25 C           8.0166   -1.0630    0.0000 C.3     1  UNL1       -0.0588
     26 C           9.6933    2.7012    0.0000 C.3     1  UNL1       -0.0118
     27 C           5.4545    0.6955    0.0000 C.3     1  UNL1       -0.0590
     28 C          10.9593    1.8012    0.0000 C.2     1  UNL1        0.3141
     29 C           3.4037   -1.4424    0.0000 C.3     1  UNL1        0.0630
     30 C           3.4128   -0.2652    0.0000 C.3     1  UNL1       -0.0257
     31 C           8.3612    3.3012    0.0000 C.3     1  UNL1       -0.0585
     32 C           3.9265   -2.8990    0.0000 C.3     1  UNL1        0.0522
     33 C           4.9265   -2.8951    0.0000 C.3     1  UNL1       -0.0548
     34 C          10.0933    4.3012    0.0000 C.3     1  UNL1       -0.0246
     35 H           9.0484    0.8608    0.0000 H       1  UNL1        0.0309
     36 H           7.1719    0.6677    0.0000 H       1  UNL1        0.0312
     37 H           8.4911    2.2262    0.0000 H       1  UNL1        0.0318
     38 H           5.4414   -2.2846    0.0000 H       1  UNL1        0.0313
     39 H           8.8140   -0.7441    0.0000 H       1  UNL1        0.0271
     40 H           9.6123   -0.7410    0.0000 H       1  UNL1        0.0271
     41 H           7.7986    2.3251    0.0000 H       1  UNL1        0.0268
     42 H           7.0005    2.3404    0.0000 H       1  UNL1        0.0268
     43 H           7.6092   -2.0074    0.0000 H       1  UNL1        0.0271
     44 H           8.0004   -1.3115    0.0000 H       1  UNL1        0.0271
     45 H           6.2380    1.9158    0.0000 H       1  UNL1        0.0268
     46 H           5.8309    1.2291    0.0000 H       1  UNL1        0.0268
     47 H           9.2273    3.4212    0.0000 H       1  UNL1        0.0340
     48 H          10.3274   -0.3207    0.0000 H       1  UNL1        0.0276
     49 H          10.7185    0.3752    0.0000 H       1  UNL1        0.0276
     50 H           6.0196   -2.4756    0.0000 H       1  UNL1        0.0268
     51 H           6.8178   -2.4725    0.0000 H       1  UNL1        0.0268
     52 H           4.8494    0.7743    0.0000 H       1  UNL1        0.0271
     53 H           4.0513    0.7896    0.0000 H       1  UNL1        0.0271
     54 H           9.1062    2.1007    0.0000 H       1  UNL1        0.0277
     55 H          10.2867    2.0808    0.0000 H       1  UNL1        0.0277
     56 H           8.0599   -0.8972    0.0000 H       1  UNL1        0.0235
     57 H           8.8517   -1.2738    0.0000 H       1  UNL1        0.0235
     58 H           9.2283   -0.4819    0.0000 H       1  UNL1        0.0235
     59 H           7.5416   -1.4616    0.0000 H       1  UNL1        0.0235
     60 H           8.4151   -1.5380    0.0000 H       1  UNL1        0.0235
     61 H           8.4915   -0.6645    0.0000 H       1  UNL1        0.0235
     62 H           9.3155    3.1928    0.0000 H       1  UNL1        0.0304
     63 H          10.2867    2.5215    0.0000 H       1  UNL1        0.0304
     64 H           6.0745    0.6908    0.0000 H       1  UNL1        0.0235
     65 H           5.4593    1.3155    0.0000 H       1  UNL1        0.0235
     66 H           4.8346    0.7003    0.0000 H       1  UNL1        0.0235
     67 H           3.4025   -2.0624    0.0000 H       1  UNL1        0.0599
     68 H           3.2082    0.3201    0.0000 H       1  UNL1        0.0290
     69 H           2.8011   -0.3666    0.0000 H       1  UNL1        0.0290
     70 H           8.6712    3.8381    0.0000 H       1  UNL1        0.0234
     71 H           7.8243    3.6112    0.0000 H       1  UNL1        0.0234
     72 H           8.0512    2.7642    0.0000 H       1  UNL1        0.0234
     73 H           3.4500   -2.5023    0.0000 H       1  UNL1        0.0563
     74 H           3.4531   -3.2993    0.0000 H       1  UNL1        0.0563
     75 H           4.3908   -3.2072    0.0000 H       1  UNL1        0.0237
     76 H           5.2386   -3.4308    0.0000 H       1  UNL1        0.0237
     77 H           5.4622   -2.5830    0.0000 H       1  UNL1        0.0237
     78 H          10.7133    4.3012    0.0000 H       1  UNL1        0.0268
     79 H          10.0933    4.9212    0.0000 H       1  UNL1        0.0268
     80 H           9.4733    4.3012    0.0000 H       1  UNL1        0.0268
     81 H           2.0000   -1.6270    0.0000 H       1  UNL1        0.2098
     82 H           4.1219   -4.3012    0.0000 H       1  UNL1        0.2094
@<TRIPOS>BOND
     1     1    21    1
     2     1    28    1
     3    29     2    1
     4     2    81    1
     5     3    28    2
     6     4    32    1
     7     4    82    1
     8     5     6    1
     9     5     7    1
    10     5    13    1
    11     5    24    1
    12     6     8    1
    13     6    15    1
    14     6    25    1
    15     7     9    1
    16     7    14    1
    17     7    35    1
    18     8    10    1
    19     8    16    1
    20     8    36    1
    21     9    11    1
    22     9    17    1
    23     9    37    1
    24    10    12    1
    25    10    22    1
    26    10    27    1
    27    11    18    1
    28    11    23    1
    29    11    28    1
    30    12    19    1
    31    12    20    1
    32    12    38    1
    33    13    18    1
    34    13    39    1
    35    13    40    1
    36    14    16    1
    37    14    41    1
    38    14    42    1
    39    15    19    1
    40    15    43    1
    41    15    44    1
    42    16    45    1
    43    16    46    1
    44    17    21    1
    45    17    31    1
    46    17    47    1
    47    18    48    1
    48    18    49    1
    49    19    50    1
    50    19    51    1
    51    20    29    1
    52    20    32    1
    53    20    33    1
    54    21    26    1
    55    21    34    1
    56    22    30    1
    57    22    52    1
    58    22    53    1
    59    23    26    1
    60    23    54    1
    61    23    55    1
    62    24    56    1
    63    24    57    1
    64    24    58    1
    65    25    59    1
    66    25    60    1
    67    25    61    1
    68    26    62    1
    69    26    63    1
    70    27    64    1
    71    27    65    1
    72    27    66    1
    73    29    30    1
    74    29    67    1
    75    30    68    1
    76    30    69    1
    77    31    70    1
    78    31    71    1
    79    31    72    1
    80    32    73    1
    81    32    74    1
    82    33    75    1
    83    33    76    1
    84    33    77    1
    85    34    78    1
    86    34    79    1
    87    34    80    1
