@<TRIPOS>MOLECULE
IMPHY008844
 40 43 0 0 0
SMALL
GASTEIGER

@<TRIPOS>ATOM
      1 O           4.2690   -0.0716    0.0000 O.3     1  UNL1       -0.3157
      2 O           5.1350   -1.5716    0.0000 O.3     1  UNL1       -0.4470
      3 O           6.8671    1.4284    0.0000 O.3     1  UNL1       -0.2173
      4 O           5.1350    2.4284    0.0000 O.3     1  UNL1       -0.2176
      5 O           6.8671   -0.5716    0.0000 O.3     1  UNL1       -0.2135
      6 O           2.5369    0.9284    0.0000 O.3     1  UNL1       -0.2176
      7 O           5.1350   -3.5716    0.0000 O.3     1  UNL1       -0.2833
      8 O          10.7629   -3.4376    0.0000 O.co2   1  UNL1       -0.5431
      9 O          10.7629   -1.7055    0.0000 O.co2   1  UNL1       -0.5431
     10 O           9.5648    3.7301    0.0000 O.co2   1  UNL1       -0.2438
     11 OXT         8.2756    2.5733    0.0000 O.co2   1  UNL1       -0.2438
     12 O          13.2147    0.9591    0.0000 O.co2   1  UNL1       -0.2392
     13 OXT        12.8575    2.6539    0.0000 O.co2   1  UNL1       -0.2392
     14 N           8.6793   -1.7668    0.0000 N.2     1  UNL1       -0.1655
     15 N          10.9005    2.2415    0.0000 N.pl3   1  UNL1       -0.3199
     16 C           6.0010    0.9284    0.0000 C.3     1  UNL1        0.2211
     17 C           5.1350    1.4284    0.0000 C.3     1  UNL1        0.2145
     18 C           6.0010   -0.0716    0.0000 C.3     1  UNL1        0.2542
     19 C           4.2690    0.9284    0.0000 C.3     1  UNL1        0.1846
     20 C           5.1350   -0.5716    0.0000 C.3     1  UNL1        0.3219
     21 C           9.2629   -2.5716    0.0000 C.3     1  UNL1        0.2926
     22 C           8.6793   -3.3763    0.0000 C.3     1  UNL1        0.1165
     23 C           7.7331   -2.0716    0.0000 C.ar    1  UNL1        0.2259
     24 C           7.7331   -3.0716    0.0000 C.ar    1  UNL1        0.0519
     25 C           3.4030    1.4284    0.0000 C.3     1  UNL1        0.2142
     26 C           6.0010   -2.0716    0.0000 C.ar    1  UNL1        0.1859
     27 C           6.8671   -1.5716    0.0000 C.ar    1  UNL1        0.1091
     28 C           6.8671   -3.5716    0.0000 C.ar    1  UNL1        0.0471
     29 C           6.0010   -3.0716    0.0000 C.ar    1  UNL1        0.2295
     30 C           8.9900   -0.8163    0.0000 C.2     1  UNL1        0.2897
     31 C          10.2629   -2.5716    0.0000 C.2     1  UNL1        0.1224
     32 C           9.9685   -0.6101    0.0000 C.2     1  UNL1        0.0715
     33 C          10.2791    0.3404    0.0000 C.2     1  UNL1       -0.0124
     34 C           9.6113    1.0847    0.0000 C.3     1  UNL1        0.0577
     35 CA          9.9220    2.0353    0.0000 C.3     1  UNL1        0.1784
     36 C          11.2576    0.5467    0.0000 C.2     1  UNL1        0.0170
     37 CA         11.5683    1.4972    0.0000 C.2     1  UNL1        0.1255
     38 C           9.2541    2.7796    0.0000 C.2     1  UNL1        0.3825
     39 C          12.5468    1.7034    0.0000 C.2     1  UNL1        0.4006
     40 H          11.0931    2.8308    0.0000 H       1  UNL1        0.1474
@<TRIPOS>UNITY_ATOM_ATTR
8 1
charge -1
14 1
charge 1
@<TRIPOS>BOND
     1     1    19    1
     2     1    20    1
     3     2    26    1
     4     6    25    1
     5     7    29    1
     6     8    31   ar
     7     9    31   ar
     8    10    38   ar
     9    11    38   ar
    10    12    39   ar
    11    13    39   ar
    12    14    21    1
    13    14    23    1
    14    14    30    2
    15    15    35    1
    16    15    37    1
    17    15    40    1
    18    16     3    1
    19    16    17    1
    20    16    18    1
    21    17     4    1
    22    17    19    1
    23    18     5    1
    24    18    20    1
    25    19    25    1
    26    20     2    1
    27    21    22    1
    28    21    31    1
    29    22    24    1
    30    23    24   ar
    31    23    27   ar
    32    24    28   ar
    33    26    27   ar
    34    26    29   ar
    35    28    29   ar
    36    30    32    1
    37    32    33    2
    38    33    34    1
    39    33    36    1
    40    34    35    1
    41    35    38    1
    42    36    37    2
    43    37    39    1
