@<TRIPOS>MOLECULE
IMPHY016392
 26 25 0 0 0
SMALL
GASTEIGER

@<TRIPOS>ATOM
      1 C           2.8660   -0.7500    0.0000 C.3     1  UNL1       -0.0277
      2 C           7.1962    0.7500    0.0000 C.3     1  UNL1        0.0153
      3 C           2.0000   -0.2500    0.0000 C.3     1  UNL1       -0.0592
      4 C           2.8660   -1.7500    0.0000 C.3     1  UNL1       -0.0592
      5 C           3.7320   -0.2500    0.0000 C.2     1  UNL1       -0.0733
      6 C           8.0622    0.2500    0.0000 C.3     1  UNL1       -0.0517
      7 C           7.1962    1.7500    0.0000 C.3     1  UNL1       -0.0517
      8 C           4.5981   -0.7500    0.0000 C.2     1  UNL1       -0.0152
      9 C           6.3301    0.2500    0.0000 C.1     1  UNL1       -0.0947
     10 C           5.4641   -0.2500    0.0000 C.1     1  UNL1       -0.0741
     11 H           2.8660   -0.1300    0.0000 H       1  UNL1        0.0338
     12 H           6.6592    1.0600    0.0000 H       1  UNL1        0.0428
     13 H           2.3100    0.2869    0.0000 H       1  UNL1        0.0235
     14 H           1.4631    0.0600    0.0000 H       1  UNL1        0.0235
     15 H           1.6900   -0.7869    0.0000 H       1  UNL1        0.0235
     16 H           2.2460   -1.7500    0.0000 H       1  UNL1        0.0235
     17 H           2.8660   -2.3700    0.0000 H       1  UNL1        0.0235
     18 H           3.4860   -1.7500    0.0000 H       1  UNL1        0.0235
     19 H           3.7320    0.3700    0.0000 H       1  UNL1        0.0581
     20 H           7.7522   -0.2869    0.0000 H       1  UNL1        0.0241
     21 H           8.5991   -0.0600    0.0000 H       1  UNL1        0.0241
     22 H           8.3722    0.7869    0.0000 H       1  UNL1        0.0241
     23 H           7.8162    1.7500    0.0000 H       1  UNL1        0.0241
     24 H           7.1962    2.3700    0.0000 H       1  UNL1        0.0241
     25 H           6.5762    1.7500    0.0000 H       1  UNL1        0.0241
     26 H           4.5981   -1.3700    0.0000 H       1  UNL1        0.0709
@<TRIPOS>BOND
     1     1     3    1
     2     1     4    1
     3     1     5    1
     4     1    11    1
     5     2     6    1
     6     2     7    1
     7     2     9    1
     8     2    12    1
     9     3    13    1
    10     3    14    1
    11     3    15    1
    12     4    16    1
    13     4    17    1
    14     4    18    1
    15     5     8    2
    16     5    19    1
    17     6    20    1
    18     6    21    1
    19     6    22    1
    20     7    23    1
    21     7    24    1
    22     7    25    1
    23     8    10    1
    24     8    26    1
    25     9    10    3
