@<TRIPOS>MOLECULE
IMPHY016965
 43 42 0 0 0
SMALL
GASTEIGER

@<TRIPOS>ATOM
      1 O           3.7320    1.5000    0.0000 O.3     1  UNL1       -0.3516
      2 O           4.5981    0.0000    0.0000 O.3     1  UNL1       -0.3516
      3 C           7.1962    1.5000    0.0000 C.3     1  UNL1       -0.0529
      4 C           8.0622    1.0000    0.0000 C.3     1  UNL1       -0.0531
      5 C           6.3301    1.0000    0.0000 C.3     1  UNL1       -0.0485
      6 C           8.9282    1.5000    0.0000 C.3     1  UNL1       -0.0531
      7 C           5.4641    1.5000    0.0000 C.3     1  UNL1       -0.0016
      8 C           9.7942    1.0000    0.0000 C.3     1  UNL1       -0.0533
      9 C           4.5981    1.0000    0.0000 C.3     1  UNL1        0.1591
     10 C          10.6603    1.5000    0.0000 C.3     1  UNL1       -0.0559
     11 C          11.5263    1.0000    0.0000 C.3     1  UNL1       -0.0653
     12 C           2.8660    1.0000    0.0000 C.3     1  UNL1        0.0478
     13 C           3.7320   -0.5000    0.0000 C.3     1  UNL1        0.0478
     14 C           2.0000    1.5000    0.0000 C.3     1  UNL1       -0.0415
     15 C           3.7320   -1.5000    0.0000 C.3     1  UNL1       -0.0415
     16 H           7.5947    1.9750    0.0000 H       1  UNL1        0.0265
     17 H           6.7976    1.9750    0.0000 H       1  UNL1        0.0265
     18 H           7.6636    0.5251    0.0000 H       1  UNL1        0.0265
     19 H           8.4607    0.5251    0.0000 H       1  UNL1        0.0265
     20 H           5.9316    0.5251    0.0000 H       1  UNL1        0.0267
     21 H           6.7287    0.5251    0.0000 H       1  UNL1        0.0267
     22 H           9.3267    1.9750    0.0000 H       1  UNL1        0.0265
     23 H           8.5297    1.9750    0.0000 H       1  UNL1        0.0265
     24 H           5.8626    1.9750    0.0000 H       1  UNL1        0.0314
     25 H           5.0656    1.9750    0.0000 H       1  UNL1        0.0314
     26 H           9.3957    0.5251    0.0000 H       1  UNL1        0.0265
     27 H          10.1928    0.5251    0.0000 H       1  UNL1        0.0265
     28 H           4.5981    1.6200    0.0000 H       1  UNL1        0.0909
     29 H          11.0588    1.9750    0.0000 H       1  UNL1        0.0263
     30 H          10.2617    1.9750    0.0000 H       1  UNL1        0.0263
     31 H          11.2163    0.4631    0.0000 H       1  UNL1        0.0230
     32 H          12.0632    0.6900    0.0000 H       1  UNL1        0.0230
     33 H          11.8363    1.5369    0.0000 H       1  UNL1        0.0230
     34 H           2.4675    0.5251    0.0000 H       1  UNL1        0.0558
     35 H           3.2646    0.5251    0.0000 H       1  UNL1        0.0558
     36 H           3.5200    0.0826    0.0000 H       1  UNL1        0.0558
     37 H           3.1215   -0.6077    0.0000 H       1  UNL1        0.0558
     38 H           2.3100    2.0369    0.0000 H       1  UNL1        0.0252
     39 H           1.4631    1.8100    0.0000 H       1  UNL1        0.0252
     40 H           1.6900    0.9631    0.0000 H       1  UNL1        0.0252
     41 H           3.1120   -1.5000    0.0000 H       1  UNL1        0.0252
     42 H           3.7320   -2.1200    0.0000 H       1  UNL1        0.0252
     43 H           4.3520   -1.5000    0.0000 H       1  UNL1        0.0252
@<TRIPOS>BOND
     1     1     9    1
     2     1    12    1
     3     2     9    1
     4     2    13    1
     5     3     4    1
     6     3     5    1
     7     3    16    1
     8     3    17    1
     9     4     6    1
    10     4    18    1
    11     4    19    1
    12     5     7    1
    13     5    20    1
    14     5    21    1
    15     6     8    1
    16     6    22    1
    17     6    23    1
    18     7     9    1
    19     7    24    1
    20     7    25    1
    21     8    10    1
    22     8    26    1
    23     8    27    1
    24     9    28    1
    25    10    11    1
    26    10    29    1
    27    10    30    1
    28    11    31    1
    29    11    32    1
    30    11    33    1
    31    12    14    1
    32    12    34    1
    33    12    35    1
    34    13    15    1
    35    13    36    1
    36    13    37    1
    37    14    38    1
    38    14    39    1
    39    14    40    1
    40    15    41    1
    41    15    42    1
    42    15    43    1
