@<TRIPOS>MOLECULE
IMPHY000520
 50 56 0 0 0
SMALL
GASTEIGER

@<TRIPOS>ATOM
      1 C          11.9859    3.7169    0.0000 C.3     1  UNL1        0.1290
      2 C          11.9859    4.8880    0.0000 C.3     1  UNL1        0.0578
      3 C          10.9782    3.1291    0.0000 C.3     1  UNL1        0.0288
      4 C          13.0996    3.3633    0.0000 C.3     1  UNL1        0.0308
      5 O          12.0477    2.7004    0.0000 O.3     1  UNL1       -0.2256
      6 C          13.0996    5.2460    0.0000 C.3     1  UNL1        0.0302
      7 C          10.9694    5.4714    0.0000 C.3     1  UNL1        0.1545
      8 C          11.9947    5.9753    0.0000 C.3     1  UNL1        0.0053
      9 C           9.9705    3.7169    0.0000 C.3     1  UNL1        0.0083
     10 C          10.9782    1.9579    0.0000 C.3     1  UNL1        0.0068
     11 C          13.7846    4.3002    0.0000 C.3     1  UNL1        0.0071
     12 C          13.6299    6.0769    0.0000 C.ar    1  UNL1        0.0156
     13 C           9.9484    4.8880    0.0000 C.3     1  UNL1        0.0334
     14 O          10.9252    6.5144    0.0000 O.3     1  UNL1       -0.2231
     15 C           8.9408    3.1291    0.0000 C.3     1  UNL1        0.0152
     16 C           9.9705    1.3701    0.0000 C.3     1  UNL1        0.0218
     17 C          13.2012    7.0801    0.0000 C.ar    1  UNL1        0.1787
     18 C          14.7127    5.9532    0.0000 C.ar    1  UNL1        0.0055
     19 C           8.9408    1.9579    0.0000 C.2     1  UNL1       -0.0468
     20 C           7.9287    3.7169    0.0000 C.3     1  UNL1        0.0066
     21 C           8.9673    4.2030    0.0000 C.3     1  UNL1        0.0040
     22 O          13.8553    7.9552    0.0000 O.2     1  UNL1       -0.4182
     23 C          15.3668    6.8194    0.0000 C.ar    1  UNL1        0.0821
     24 C           7.9287    1.3701    0.0000 C.2     1  UNL1       -0.0056
     25 C           6.9122    3.1291    0.0000 C.3     1  UNL1        0.0345
     26 C          14.9381    7.8226    0.0000 C.ar    1  UNL1        0.3460
     27 C           6.9122    1.9579    0.0000 C.3     1  UNL1        0.1392
     28 O          15.4685    8.6005    0.0000 O.2     1  UNL1       -0.2445
     29 O           6.2051    1.4010    0.0000 O.3     1  UNL1       -0.3266
     30 C           5.4758    1.4010    0.0000 C.3     1  UNL1        0.2696
     31 C           5.0781    0.7204    0.0000 C.3     1  UNL1        0.2404
     32 O           5.0825    2.0860    0.0000 O.3     1  UNL1       -0.3285
     33 C           4.2914    0.7336    0.0000 C.3     1  UNL1        0.2166
     34 O           5.4714    0.0398    0.0000 O.3     1  UNL1       -0.2149
     35 C           4.3047    2.0860    0.0000 C.3     1  UNL1        0.1476
     36 C           3.9157    1.4054    0.0000 C.3     1  UNL1        0.1778
     37 O           3.9025    0.0486    0.0000 O.3     1  UNL1       -0.2175
     38 C           3.9202    2.7578    0.0000 C.3     1  UNL1        0.0348
     39 O           3.1467    1.4010    0.0000 O.3     1  UNL1       -0.3258
     40 C           2.3954    1.4010    0.0000 C.3     1  UNL1        0.2695
     41 C           1.9888    0.7027    0.0000 C.3     1  UNL1        0.2406
     42 O           1.9976    2.0993    0.0000 O.3     1  UNL1       -0.3256
     43 C           1.1800    0.7071    0.0000 C.3     1  UNL1        0.2198
     44 O           2.3910    0.0000    0.0000 O.3     1  UNL1       -0.2149
     45 C           1.1889    2.1081    0.0000 C.3     1  UNL1        0.1835
     46 C           0.7823    1.4054    0.0000 C.3     1  UNL1        0.2144
     47 O           0.7734    0.0088    0.0000 O.3     1  UNL1       -0.2174
     48 C           0.7955    2.8064    0.0000 C.3     1  UNL1        0.2142
     49 O           0.0000    1.4010    0.0000 O.3     1  UNL1       -0.2176
     50 O           1.1977    3.5003    0.0000 O.3     1  UNL1       -0.2176
@<TRIPOS>BOND
     1     1     2    1
     2     1     3    1
     3     1     4    1
     4     1     5    1
     5     2     6    1
     6     2     7    1
     7     2     8    1
     8     3     9    1
     9     3    10    1
    10     4    11    1
    11     6    11    1
    12     6    12    1
    13     7    13    1
    14     7    14    1
    15     9    13    1
    16     9    15    1
    17    10    16    1
    18    12    17   ar
    19    12    18   ar
    20    15    19    1
    21    15    20    1
    22    15    21    1
    23    16    19    1
    24    17    22   ar
    25    18    23   ar
    26    19    24    2
    27    20    25    1
    28    22    26   ar
    29    23    26   ar
    30    24    27    1
    31    25    27    1
    32    26    28    2
    33    27    29    1
    34    30    29    1
    35    30    31    1
    36    30    32    1
    37    31    33    1
    38    31    34    1
    39    32    35    1
    40    33    36    1
    41    33    37    1
    42    35    36    1
    43    35    38    1
    44    36    39    1
    45    40    39    1
    46    40    41    1
    47    40    42    1
    48    41    43    1
    49    41    44    1
    50    42    45    1
    51    43    46    1
    52    43    47    1
    53    45    46    1
    54    45    48    1
    55    46    49    1
    56    48    50    1
