@<TRIPOS>MOLECULE
IMPHY003377
 37 37 0 0 0
SMALL
GASTEIGER

@<TRIPOS>ATOM
      1 O           2.0000   -2.1048    0.0000 O.2     1  UNL1       -0.2967
      2 O           4.8479   -4.1739    0.0000 O.2     1  UNL1       -0.2969
      3 C           3.7601   -1.8261    0.0000 C.3     1  UNL1        0.0246
      4 C           3.7601   -0.8261    0.0000 C.3     1  UNL1       -0.0431
      5 C           4.6261   -0.3261    0.0000 C.3     1  UNL1       -0.0524
      6 C           4.5691   -2.4139    0.0000 C.3     1  UNL1        0.0158
      7 C           4.6261    0.6739    0.0000 C.3     1  UNL1       -0.0530
      8 C           2.9511   -2.4139    0.0000 C.2     1  UNL1        0.1439
      9 C           5.4921    1.1739    0.0000 C.3     1  UNL1       -0.0531
     10 C           3.2601   -3.3649    0.0000 C.3     1  UNL1        0.0646
     11 C           4.2601   -3.3649    0.0000 C.2     1  UNL1        0.1411
     12 C           5.4921    2.1739    0.0000 C.3     1  UNL1       -0.0531
     13 C           6.3582    2.6739    0.0000 C.3     1  UNL1       -0.0533
     14 C           6.3582    3.6739    0.0000 C.3     1  UNL1       -0.0559
     15 C           7.2242    4.1739    0.0000 C.3     1  UNL1       -0.0653
     16 H           4.5174   -1.4402    0.0000 H       1  UNL1        0.0381
     17 H           3.5480   -0.2435    0.0000 H       1  UNL1        0.0272
     18 H           3.1495   -0.9337    0.0000 H       1  UNL1        0.0272
     19 H           4.8382   -0.9087    0.0000 H       1  UNL1        0.0265
     20 H           5.2367   -0.2184    0.0000 H       1  UNL1        0.0265
     21 H           5.1355   -2.6660    0.0000 H       1  UNL1        0.0348
     22 H           4.8791   -1.8769    0.0000 H       1  UNL1        0.0348
     23 H           4.4140    1.2565    0.0000 H       1  UNL1        0.0265
     24 H           4.0155    0.5663    0.0000 H       1  UNL1        0.0265
     25 H           5.7042    0.5913    0.0000 H       1  UNL1        0.0265
     26 H           6.1027    1.2816    0.0000 H       1  UNL1        0.0265
     27 H           2.6536   -3.4938    0.0000 H       1  UNL1        0.0419
     28 H           3.3249   -3.9815    0.0000 H       1  UNL1        0.0419
     29 H           5.2801    2.7565    0.0000 H       1  UNL1        0.0265
     30 H           4.8815    2.0663    0.0000 H       1  UNL1        0.0265
     31 H           6.5702    2.0913    0.0000 H       1  UNL1        0.0265
     32 H           6.9687    2.7816    0.0000 H       1  UNL1        0.0265
     33 H           6.1461    4.2565    0.0000 H       1  UNL1        0.0263
     34 H           5.7476    3.5663    0.0000 H       1  UNL1        0.0263
     35 H           7.5342    3.6370    0.0000 H       1  UNL1        0.0230
     36 H           7.7611    4.4839    0.0000 H       1  UNL1        0.0230
     37 H           6.9142    4.7109    0.0000 H       1  UNL1        0.0230
@<TRIPOS>BOND
     1     1     8    2
     2     2    11    2
     3     3     4    1
     4     3     6    1
     5     3     8    1
     6     3    16    1
     7     4     5    1
     8     4    17    1
     9     4    18    1
    10     5     7    1
    11     5    19    1
    12     5    20    1
    13     6    11    1
    14     6    21    1
    15     6    22    1
    16     7     9    1
    17     7    23    1
    18     7    24    1
    19     8    10    1
    20     9    12    1
    21     9    25    1
    22     9    26    1
    23    10    11    1
    24    10    27    1
    25    10    28    1
    26    12    13    1
    27    12    29    1
    28    12    30    1
    29    13    14    1
    30    13    31    1
    31    13    32    1
    32    14    15    1
    33    14    33    1
    34    14    34    1
    35    15    35    1
    36    15    36    1
    37    15    37    1
