@<TRIPOS>MOLECULE
IMPHY017562
 16 16 0 0 0
SMALL
GASTEIGER

@<TRIPOS>ATOM
      1 O           3.7601    1.2694    0.0000 O.2     1  UNL1       -0.2887
      2 O           5.5202   -0.0093    0.0000 O.2     1  UNL1       -0.2890
      3 C           2.9511   -0.3184    0.0000 C.3     1  UNL1        0.0226
      4 C           3.2601   -1.2694    0.0000 C.3     1  UNL1       -0.0362
      5 C           4.2601   -1.2694    0.0000 C.3     1  UNL1        0.0140
      6 C           3.7601    0.2694    0.0000 C.2     1  UNL1        0.2009
      7 C           4.5691   -0.3184    0.0000 C.2     1  UNL1        0.1984
      8 C           2.0000   -0.0093    0.0000 C.3     1  UNL1       -0.0553
      9 H           2.3500   -0.9194    0.0000 H       1  UNL1        0.0379
     10 H           2.6536   -1.3983    0.0000 H       1  UNL1        0.0276
     11 H           3.3249   -1.8860    0.0000 H       1  UNL1        0.0276
     12 H           4.1953   -1.8860    0.0000 H       1  UNL1        0.0346
     13 H           4.8665   -1.3983    0.0000 H       1  UNL1        0.0346
     14 H           2.1916    0.5803    0.0000 H       1  UNL1        0.0237
     15 H           1.4103    0.1822    0.0000 H       1  UNL1        0.0237
     16 H           1.8084   -0.5990    0.0000 H       1  UNL1        0.0237
@<TRIPOS>BOND
     1     1     6    2
     2     2     7    2
     3     3     4    1
     4     3     6    1
     5     3     8    1
     6     3     9    1
     7     4     5    1
     8     4    10    1
     9     4    11    1
    10     5     7    1
    11     5    12    1
    12     5    13    1
    13     6     7    1
    14     8    14    1
    15     8    15    1
    16     8    16    1
