@<TRIPOS>MOLECULE
IMPHY001781
 38 39 0 0 0
SMALL
GASTEIGER

@<TRIPOS>ATOM
      1 O           6.0174   -2.0123    0.0000 O.3     1  UNL1       -0.4908
      2 O           2.5369   -0.9777    0.0000 O.3     1  UNL1       -0.5060
      3 O           7.7991   -1.0019    0.0000 O.3     1  UNL1       -0.5031
      4 O           3.4030   -2.4777    0.0000 O.2     1  UNL1       -0.2956
      5 C           4.2690    1.0223    0.0000 C.ar    1  UNL1       -0.0335
      6 C           4.2690    2.0223    0.0000 C.3     1  UNL1       -0.0208
      7 C           5.1350    0.5223    0.0000 C.ar    1  UNL1       -0.0096
      8 C           5.1350   -0.4777    0.0000 C.ar    1  UNL1        0.0414
      9 C           3.4030    0.5223    0.0000 C.ar    1  UNL1       -0.0155
     10 C           4.2690   -0.9777    0.0000 C.ar    1  UNL1        0.0669
     11 C           6.0290    1.0570    0.0000 C.ar    1  UNL1       -0.0471
     12 C           6.0290   -1.0124    0.0000 C.ar    1  UNL1        0.1700
     13 C           6.9350    0.5431    0.0000 C.ar    1  UNL1       -0.0048
     14 C           3.4030    2.5223    0.0000 C.3     1  UNL1       -0.0586
     15 C           5.1350    2.5223    0.0000 C.3     1  UNL1       -0.0586
     16 C           3.4030   -0.4777    0.0000 C.ar    1  UNL1        0.1280
     17 C           6.9350   -0.4985    0.0000 C.ar    1  UNL1        0.1621
     18 C           7.7991    1.0464    0.0000 C.3     1  UNL1       -0.0361
     19 C           4.2690   -1.9777    0.0000 C.2     1  UNL1        0.1544
     20 C           6.8776   -2.5223    0.0000 C.3     1  UNL1        0.0790
     21 H           4.2690    2.6423    0.0000 H       1  UNL1        0.0344
     22 H           2.8660    0.8323    0.0000 H       1  UNL1        0.0657
     23 H           6.0218    1.6769    0.0000 H       1  UNL1        0.0627
     24 H           3.7130    3.0592    0.0000 H       1  UNL1        0.0235
     25 H           2.8660    2.8323    0.0000 H       1  UNL1        0.0235
     26 H           3.0930    1.9854    0.0000 H       1  UNL1        0.0235
     27 H           5.4450    1.9854    0.0000 H       1  UNL1        0.0235
     28 H           5.6720    2.8323    0.0000 H       1  UNL1        0.0235
     29 H           4.8250    3.0592    0.0000 H       1  UNL1        0.0235
     30 H           8.1112    0.5107    0.0000 H       1  UNL1        0.0279
     31 H           8.3348    1.3585    0.0000 H       1  UNL1        0.0279
     32 H           7.4870    1.5822    0.0000 H       1  UNL1        0.0279
     33 H           4.8059   -2.2877    0.0000 H       1  UNL1        0.1083
     34 H           2.0000   -0.6677    0.0000 H       1  UNL1        0.2922
     35 H           8.3372   -0.6939    0.0000 H       1  UNL1        0.2923
     36 H           6.5614   -3.0556    0.0000 H       1  UNL1        0.0660
     37 H           7.4109   -2.8385    0.0000 H       1  UNL1        0.0660
     38 H           7.1938   -1.9890    0.0000 H       1  UNL1        0.0660
@<TRIPOS>BOND
     1     1    12    1
     2     1    20    1
     3     2    16    1
     4     2    34    1
     5     3    17    1
     6     3    35    1
     7     4    19    2
     8     5     6    1
     9     5     7   ar
    10     5     9   ar
    11     6    14    1
    12     6    15    1
    13     6    21    1
    14     7     8   ar
    15     7    11   ar
    16     8    10   ar
    17     8    12   ar
    18     9    16   ar
    19     9    22    1
    20    10    16   ar
    21    10    19    1
    22    11    13   ar
    23    11    23    1
    24    12    17   ar
    25    13    17   ar
    26    13    18    1
    27    14    24    1
    28    14    25    1
    29    14    26    1
    30    15    27    1
    31    15    28    1
    32    15    29    1
    33    18    30    1
    34    18    31    1
    35    18    32    1
    36    19    33    1
    37    20    36    1
    38    20    37    1
    39    20    38    1
