@<TRIPOS>MOLECULE
IMPHY006658
 99 104 0 0 0
SMALL
GASTEIGER

@<TRIPOS>ATOM
      1 O           8.5991    1.0000    0.0000 O.3     1  UNL1       -0.3281
      2 O           8.5991   -2.0000    0.0000 O.3     1  UNL1       -0.4500
      3 O           6.8671   -1.0000    0.0000 O.3     1  UNL1       -0.4512
      4 O          10.3312   -1.0000    0.0000 O.3     1  UNL1       -0.4476
      5 O          10.3312    1.0000    0.0000 O.3     1  UNL1       -0.4275
      6 O           6.8671    2.0000    0.0000 O.3     1  UNL1       -0.4584
      7 O           6.8671   -2.0000    0.0000 O.2     1  UNL1       -0.2449
      8 O           6.0010    0.5000    0.0000 O.2     1  UNL1       -0.2449
      9 O          11.1972    0.5000    0.0000 O.2     1  UNL1       -0.2449
     10 O           9.4651    2.5000    0.0000 O.2     1  UNL1       -0.2449
     11 O           5.1350    2.0000    0.0000 O.2     1  UNL1       -0.2450
     12 O           9.4651   -5.5000    0.0000 O.3     1  UNL1       -0.5032
     13 O           6.0010   -5.5000    0.0000 O.3     1  UNL1       -0.5032
     14 O           4.2690   -3.5000    0.0000 O.3     1  UNL1       -0.5032
     15 O           2.5369   -0.5000    0.0000 O.3     1  UNL1       -0.5032
     16 O          14.6613   -0.5000    0.0000 O.3     1  UNL1       -0.5032
     17 O          12.9292   -3.5000    0.0000 O.3     1  UNL1       -0.5032
     18 O           7.7331   -6.5000    0.0000 O.3     1  UNL1       -0.5009
     19 O           2.5369   -2.5000    0.0000 O.3     1  UNL1       -0.5009
     20 O          12.0632    5.0000    0.0000 O.3     1  UNL1       -0.5032
     21 O          13.7953    2.0000    0.0000 O.3     1  UNL1       -0.5032
     22 O          14.6613   -2.5000    0.0000 O.3     1  UNL1       -0.5009
     23 O          13.7953    4.0000    0.0000 O.3     1  UNL1       -0.5009
     24 O           4.2690    5.5000    0.0000 O.3     1  UNL1       -0.5032
     25 O           7.7331    5.5000    0.0000 O.3     1  UNL1       -0.5032
     26 O           6.0010    6.5000    0.0000 O.3     1  UNL1       -0.5009
     27 C           8.5991   -1.0000    0.0000 C.3     1  UNL1        0.1851
     28 C           7.7331   -0.5000    0.0000 C.3     1  UNL1        0.1730
     29 C           9.4651   -0.5000    0.0000 C.3     1  UNL1        0.2053
     30 C           7.7331    0.5000    0.0000 C.3     1  UNL1        0.1371
     31 C           9.4651    0.5000    0.0000 C.3     1  UNL1        0.2465
     32 C           6.8671    1.0000    0.0000 C.3     1  UNL1        0.1226
     33 C           7.7331   -2.5000    0.0000 C.2     1  UNL1        0.3399
     34 C           6.0010   -0.5000    0.0000 C.2     1  UNL1        0.3399
     35 C          11.1972   -0.5000    0.0000 C.2     1  UNL1        0.3400
     36 C          10.3312    2.0000    0.0000 C.2     1  UNL1        0.3417
     37 C           7.7331   -3.5000    0.0000 C.ar    1  UNL1        0.0661
     38 C           5.1350   -1.0000    0.0000 C.ar    1  UNL1        0.0661
     39 C           6.0010    2.5000    0.0000 C.2     1  UNL1        0.3395
     40 C          12.0632   -1.0000    0.0000 C.ar    1  UNL1        0.0661
     41 C          11.1972    2.5000    0.0000 C.ar    1  UNL1        0.0662
     42 C           6.0010    3.5000    0.0000 C.ar    1  UNL1        0.0661
     43 C           6.8671   -4.0000    0.0000 C.ar    1  UNL1       -0.0023
     44 C           8.5991   -4.0000    0.0000 C.ar    1  UNL1       -0.0023
     45 C           4.2690   -0.5000    0.0000 C.ar    1  UNL1       -0.0023
     46 C           5.1350   -2.0000    0.0000 C.ar    1  UNL1       -0.0023
     47 C          12.0632   -2.0000    0.0000 C.ar    1  UNL1       -0.0023
     48 C          12.9292   -0.5000    0.0000 C.ar    1  UNL1       -0.0023
     49 C          12.0632    2.0000    0.0000 C.ar    1  UNL1       -0.0023
     50 C          11.1972    3.5000    0.0000 C.ar    1  UNL1       -0.0023
     51 C           8.5991   -5.0000    0.0000 C.ar    1  UNL1        0.1628
     52 C           6.8671   -5.0000    0.0000 C.ar    1  UNL1        0.1628
     53 C           4.2690   -2.5000    0.0000 C.ar    1  UNL1        0.1628
     54 C           3.4030   -1.0000    0.0000 C.ar    1  UNL1        0.1628
     55 C          13.7953   -1.0000    0.0000 C.ar    1  UNL1        0.1628
     56 C          12.9292   -2.5000    0.0000 C.ar    1  UNL1        0.1628
     57 C           6.8671    4.0000    0.0000 C.ar    1  UNL1       -0.0023
     58 C           5.1350    4.0000    0.0000 C.ar    1  UNL1       -0.0023
     59 C           7.7331   -5.5000    0.0000 C.ar    1  UNL1        0.2006
     60 C           3.4030   -2.0000    0.0000 C.ar    1  UNL1        0.2006
     61 C          12.0632    4.0000    0.0000 C.ar    1  UNL1        0.1628
     62 C          12.9292    2.5000    0.0000 C.ar    1  UNL1        0.1628
     63 C          13.7953   -2.0000    0.0000 C.ar    1  UNL1        0.2006
     64 C          12.9292    3.5000    0.0000 C.ar    1  UNL1        0.2006
     65 C           5.1350    5.0000    0.0000 C.ar    1  UNL1        0.1628
     66 C           6.8671    5.0000    0.0000 C.ar    1  UNL1        0.1628
     67 C           6.0010    5.5000    0.0000 C.ar    1  UNL1        0.2006
     68 H           9.1360   -1.3100    0.0000 H       1  UNL1        0.0813
     69 H           7.7331   -1.1200    0.0000 H       1  UNL1        0.0801
     70 H           9.4651   -1.1200    0.0000 H       1  UNL1        0.0837
     71 H           7.7331    1.1200    0.0000 H       1  UNL1        0.0670
     72 H          10.0021    0.1900    0.0000 H       1  UNL1        0.1098
     73 H           6.2565    1.1077    0.0000 H       1  UNL1        0.0725
     74 H           6.6550    0.4174    0.0000 H       1  UNL1        0.0725
     75 H           6.3301   -3.6900    0.0000 H       1  UNL1        0.0663
     76 H           9.1360   -3.6900    0.0000 H       1  UNL1        0.0663
     77 H           4.2690    0.1200    0.0000 H       1  UNL1        0.0663
     78 H           5.6720   -2.3100    0.0000 H       1  UNL1        0.0663
     79 H          11.5263   -2.3100    0.0000 H       1  UNL1        0.0663
     80 H          12.9292    0.1200    0.0000 H       1  UNL1        0.0663
     81 H          12.0632    1.3800    0.0000 H       1  UNL1        0.0663
     82 H          10.6603    3.8100    0.0000 H       1  UNL1        0.0663
     83 H           7.4040    3.6900    0.0000 H       1  UNL1        0.0663
     84 H           4.5981    3.6900    0.0000 H       1  UNL1        0.0663
     85 H           9.4651   -6.1200    0.0000 H       1  UNL1        0.2923
     86 H           6.0010   -6.1200    0.0000 H       1  UNL1        0.2923
     87 H           3.7320   -3.8100    0.0000 H       1  UNL1        0.2923
     88 H           2.5369    0.1200    0.0000 H       1  UNL1        0.2923
     89 H          15.1982   -0.8100    0.0000 H       1  UNL1        0.2923
     90 H          13.4662   -3.8100    0.0000 H       1  UNL1        0.2923
     91 H           7.1962   -6.8100    0.0000 H       1  UNL1        0.2924
     92 H           2.0000   -2.1900    0.0000 H       1  UNL1        0.2924
     93 H          11.5263    5.3100    0.0000 H       1  UNL1        0.2923
     94 H          14.3322    2.3100    0.0000 H       1  UNL1        0.2923
     95 H          15.1982   -2.1900    0.0000 H       1  UNL1        0.2924
     96 H          13.7953    4.6200    0.0000 H       1  UNL1        0.2924
     97 H           3.7320    5.1900    0.0000 H       1  UNL1        0.2923
     98 H           7.7331    6.1200    0.0000 H       1  UNL1        0.2923
     99 H           5.4641    6.8100    0.0000 H       1  UNL1        0.2924
@<TRIPOS>BOND
     1     1    30    1
     2     1    31    1
     3    27     2    1
     4     2    33    1
     5    28     3    1
     6     3    34    1
     7    29     4    1
     8     4    35    1
     9    31     5    1
    10     5    36    1
    11     6    32    1
    12     6    39    1
    13     7    33    2
    14     8    34    2
    15     9    35    2
    16    10    36    2
    17    11    39    2
    18    12    51    1
    19    12    85    1
    20    13    52    1
    21    13    86    1
    22    14    53    1
    23    14    87    1
    24    15    54    1
    25    15    88    1
    26    16    55    1
    27    16    89    1
    28    17    56    1
    29    17    90    1
    30    18    59    1
    31    18    91    1
    32    19    60    1
    33    19    92    1
    34    20    61    1
    35    20    93    1
    36    21    62    1
    37    21    94    1
    38    22    63    1
    39    22    95    1
    40    23    64    1
    41    23    96    1
    42    24    65    1
    43    24    97    1
    44    25    66    1
    45    25    98    1
    46    26    67    1
    47    26    99    1
    48    27    28    1
    49    27    29    1
    50    27    68    1
    51    28    30    1
    52    28    69    1
    53    29    31    1
    54    29    70    1
    55    30    32    1
    56    30    71    1
    57    31    72    1
    58    32    73    1
    59    32    74    1
    60    33    37    1
    61    34    38    1
    62    35    40    1
    63    36    41    1
    64    37    43   ar
    65    37    44   ar
    66    38    45   ar
    67    38    46   ar
    68    39    42    1
    69    40    47   ar
    70    40    48   ar
    71    41    49   ar
    72    41    50   ar
    73    42    57   ar
    74    42    58   ar
    75    43    52   ar
    76    43    75    1
    77    44    51   ar
    78    44    76    1
    79    45    54   ar
    80    45    77    1
    81    46    53   ar
    82    46    78    1
    83    47    56   ar
    84    47    79    1
    85    48    55   ar
    86    48    80    1
    87    49    62   ar
    88    49    81    1
    89    50    61   ar
    90    50    82    1
    91    51    59   ar
    92    52    59   ar
    93    53    60   ar
    94    54    60   ar
    95    55    63   ar
    96    56    63   ar
    97    57    66   ar
    98    57    83    1
    99    58    65   ar
   100    58    84    1
   101    61    64   ar
   102    62    64   ar
   103    65    67   ar
   104    66    67   ar
