@<TRIPOS>MOLECULE
IMPHY013665
 63 62 0 0 0
SMALL
GASTEIGER

@<TRIPOS>ATOM
      1 O           4.5981    2.9400    0.0000 O.2     1  UNL1       -0.4993
      2 O           7.1962    1.4400    0.0000 O.2     1  UNL1       -0.2926
      3 O          14.9904    2.9400    0.0000 O.3     1  UNL1       -0.4679
      4 O          14.1244    1.4400    0.0000 O.2     1  UNL1       -0.2509
      5 C           3.7320   -0.5600    0.0000 C.3     1  UNL1       -0.0530
      6 C           4.5981   -0.0600    0.0000 C.3     1  UNL1       -0.0527
      7 C           3.7320   -1.5600    0.0000 C.3     1  UNL1       -0.0531
      8 C           4.5981    0.9400    0.0000 C.3     1  UNL1       -0.0462
      9 C          10.6603    2.4400    0.0000 C.3     1  UNL1       -0.0530
     10 C           9.7942    2.9400    0.0000 C.3     1  UNL1       -0.0527
     11 C          11.5263    2.9400    0.0000 C.3     1  UNL1       -0.0526
     12 C           8.9282    2.4400    0.0000 C.3     1  UNL1       -0.0461
     13 C           2.8660   -2.0600    0.0000 C.3     1  UNL1       -0.0533
     14 C           5.4641    1.4400    0.0000 C.3     1  UNL1        0.0050
     15 C          12.3923    2.4400    0.0000 C.3     1  UNL1       -0.0430
     16 C           8.0622    2.9400    0.0000 C.3     1  UNL1        0.0100
     17 C           2.8660   -3.0600    0.0000 C.3     1  UNL1       -0.0559
     18 C           5.4641    2.4400    0.0000 C.2     1  UNL1        0.1006
     19 C          13.2583    2.9400    0.0000 C.3     1  UNL1        0.0449
     20 C           7.1962    2.4400    0.0000 C.2     1  UNL1        0.1592
     21 C           6.3301    2.9400    0.0000 C.2     1  UNL1        0.0183
     22 C           2.0000   -3.5600    0.0000 C.3     1  UNL1       -0.0653
     23 C          14.1244    2.4400    0.0000 C.2     1  UNL1        0.3068
     24 C           3.7320    2.4400    0.0000 C.3     1  UNL1        0.0783
     25 C          15.8564    2.4400    0.0000 C.3     1  UNL1        0.0817
     26 H           3.5200    0.0226    0.0000 H       1  UNL1        0.0265
     27 H           3.1215   -0.6677    0.0000 H       1  UNL1        0.0265
     28 H           4.8101   -0.6426    0.0000 H       1  UNL1        0.0265
     29 H           5.2087    0.0477    0.0000 H       1  UNL1        0.0265
     30 H           3.9441   -2.1426    0.0000 H       1  UNL1        0.0265
     31 H           4.3426   -1.4523    0.0000 H       1  UNL1        0.0265
     32 H          10.2617    1.9650    0.0000 H       1  UNL1        0.0265
     33 H          11.0588    1.9650    0.0000 H       1  UNL1        0.0265
     34 H           4.3860    1.5226    0.0000 H       1  UNL1        0.0269
     35 H           3.9875    0.8323    0.0000 H       1  UNL1        0.0269
     36 H          10.1928    3.4150    0.0000 H       1  UNL1        0.0265
     37 H           9.3957    3.4150    0.0000 H       1  UNL1        0.0265
     38 H          11.9248    3.4150    0.0000 H       1  UNL1        0.0265
     39 H          11.1278    3.4150    0.0000 H       1  UNL1        0.0265
     40 H           8.5297    1.9650    0.0000 H       1  UNL1        0.0269
     41 H           9.3267    1.9650    0.0000 H       1  UNL1        0.0269
     42 H           2.6540   -1.4774    0.0000 H       1  UNL1        0.0265
     43 H           2.2554   -2.1677    0.0000 H       1  UNL1        0.0265
     44 H           5.6762    0.8574    0.0000 H       1  UNL1        0.0343
     45 H           6.0747    1.5477    0.0000 H       1  UNL1        0.0343
     46 H          11.9938    1.9650    0.0000 H       1  UNL1        0.0270
     47 H          12.7908    1.9650    0.0000 H       1  UNL1        0.0270
     48 H           8.4607    3.4150    0.0000 H       1  UNL1        0.0345
     49 H           7.6636    3.4150    0.0000 H       1  UNL1        0.0345
     50 H           3.0781   -3.6426    0.0000 H       1  UNL1        0.0263
     51 H           3.4766   -2.9523    0.0000 H       1  UNL1        0.0263
     52 H          13.6569    3.4150    0.0000 H       1  UNL1        0.0377
     53 H          12.8598    3.4150    0.0000 H       1  UNL1        0.0377
     54 H           6.3301    3.5600    0.0000 H       1  UNL1        0.0686
     55 H           1.6900   -3.0231    0.0000 H       1  UNL1        0.0230
     56 H           1.4631   -3.8700    0.0000 H       1  UNL1        0.0230
     57 H           2.3100   -4.0969    0.0000 H       1  UNL1        0.0230
     58 H           3.4220    2.9769    0.0000 H       1  UNL1        0.0660
     59 H           3.1951    2.1300    0.0000 H       1  UNL1        0.0660
     60 H           4.0420    1.9031    0.0000 H       1  UNL1        0.0660
     61 H          15.5464    1.9031    0.0000 H       1  UNL1        0.0661
     62 H          16.3933    2.1300    0.0000 H       1  UNL1        0.0661
     63 H          16.1664    2.9769    0.0000 H       1  UNL1        0.0661
@<TRIPOS>BOND
     1     1    18    1
     2     1    24    1
     3     2    20    2
     4     3    23    1
     5     3    25    1
     6     4    23    2
     7     5     6    1
     8     5     7    1
     9     5    26    1
    10     5    27    1
    11     6     8    1
    12     6    28    1
    13     6    29    1
    14     7    13    1
    15     7    30    1
    16     7    31    1
    17     8    14    1
    18     8    34    1
    19     8    35    1
    20     9    10    1
    21     9    11    1
    22     9    32    1
    23     9    33    1
    24    10    12    1
    25    10    36    1
    26    10    37    1
    27    11    15    1
    28    11    38    1
    29    11    39    1
    30    12    16    1
    31    12    40    1
    32    12    41    1
    33    13    17    1
    34    13    42    1
    35    13    43    1
    36    14    18    1
    37    14    44    1
    38    14    45    1
    39    15    19    1
    40    15    46    1
    41    15    47    1
    42    16    20    1
    43    16    48    1
    44    16    49    1
    45    17    22    1
    46    17    50    1
    47    17    51    1
    48    18    21    2
    49    19    23    1
    50    19    52    1
    51    19    53    1
    52    20    21    1
    53    21    54    1
    54    22    55    1
    55    22    56    1
    56    22    57    1
    57    24    58    1
    58    24    59    1
    59    24    60    1
    60    25    61    1
    61    25    62    1
    62    25    63    1
