@<TRIPOS>MOLECULE
IMPHY002717
 41 42 0 0 0
SMALL
GASTEIGER

@<TRIPOS>ATOM
      1 O           6.3580   -1.7847    0.0000 O.3     1  UNL1       -0.4815
      2 O           2.8660    1.2500    0.0000 O.3     1  UNL1       -0.3724
      3 O           2.8660   -1.7500    0.0000 O.3     1  UNL1       -0.4946
      4 C           7.2641   -1.2708    0.0000 C.3     1  UNL1        0.1235
      5 C           5.4641   -0.2500    0.0000 C.ar    1  UNL1        0.0171
      6 C           5.4641   -1.2500    0.0000 C.ar    1  UNL1        0.1323
      7 C           3.7320   -0.2500    0.0000 C.ar    1  UNL1        0.0233
      8 C           7.2641   -0.2292    0.0000 C.2     1  UNL1       -0.0409
      9 C           2.8660    0.2500    0.0000 C.3     1  UNL1        0.0842
     10 C           4.5981    0.2500    0.0000 C.ar    1  UNL1       -0.0420
     11 C           6.3580    0.2847    0.0000 C.2     1  UNL1       -0.0513
     12 C           8.2641   -1.2747    0.0000 C.3     1  UNL1       -0.0215
     13 C           7.7608   -2.1388    0.0000 C.3     1  UNL1       -0.0215
     14 C           3.7320   -1.2500    0.0000 C.ar    1  UNL1        0.1292
     15 C           4.5981   -1.7500    0.0000 C.ar    1  UNL1        0.0228
     16 C           2.0000   -0.2500    0.0000 C.3     1  UNL1       -0.0344
     17 C           2.0000    1.7500    0.0000 C.3     1  UNL1        0.0456
     18 C           2.0000    2.7500    0.0000 C.3     1  UNL1       -0.0415
     19 C           2.8660   -2.7500    0.0000 C.3     1  UNL1        0.0788
     20 H           7.7998    0.0829    0.0000 H       1  UNL1        0.0611
     21 H           3.4030    0.5600    0.0000 H       1  UNL1        0.0644
     22 H           4.5981    0.8700    0.0000 H       1  UNL1        0.0629
     23 H           6.3509    0.9046    0.0000 H       1  UNL1        0.0623
     24 H           7.2226   -2.4467    0.0000 H       1  UNL1        0.0271
     25 H           8.0687   -2.6769    0.0000 H       1  UNL1        0.0271
     26 H           8.2989   -1.8308    0.0000 H       1  UNL1        0.0271
     27 H           8.2617   -1.8947    0.0000 H       1  UNL1        0.0271
     28 H           8.8841   -1.2771    0.0000 H       1  UNL1        0.0271
     29 H           8.2665   -0.6547    0.0000 H       1  UNL1        0.0271
     30 H           4.5981   -2.3700    0.0000 H       1  UNL1        0.0691
     31 H           1.6900    0.2869    0.0000 H       1  UNL1        0.0258
     32 H           1.4631   -0.5600    0.0000 H       1  UNL1        0.0258
     33 H           2.3100   -0.7869    0.0000 H       1  UNL1        0.0258
     34 H           1.3894    1.8577    0.0000 H       1  UNL1        0.0557
     35 H           1.7880    1.1674    0.0000 H       1  UNL1        0.0557
     36 H           2.6200    2.7500    0.0000 H       1  UNL1        0.0252
     37 H           2.0000    3.3700    0.0000 H       1  UNL1        0.0252
     38 H           1.3800    2.7500    0.0000 H       1  UNL1        0.0252
     39 H           2.2460   -2.7500    0.0000 H       1  UNL1        0.0660
     40 H           2.8660   -3.3700    0.0000 H       1  UNL1        0.0660
     41 H           3.4860   -2.7500    0.0000 H       1  UNL1        0.0660
@<TRIPOS>BOND
     1     1     4    1
     2     1     6    1
     3     2     9    1
     4     2    17    1
     5     3    14    1
     6     3    19    1
     7     4     8    1
     8     4    12    1
     9     4    13    1
    10     5     6   ar
    11     5    10   ar
    12     5    11    1
    13     6    15   ar
    14     7     9    1
    15     7    10   ar
    16     7    14   ar
    17     8    11    2
    18     8    20    1
    19     9    16    1
    20     9    21    1
    21    10    22    1
    22    11    23    1
    23    12    27    1
    24    12    28    1
    25    12    29    1
    26    13    24    1
    27    13    25    1
    28    13    26    1
    29    14    15   ar
    30    15    30    1
    31    16    31    1
    32    16    32    1
    33    16    33    1
    34    17    18    1
    35    17    34    1
    36    17    35    1
    37    18    36    1
    38    18    37    1
    39    18    38    1
    40    19    39    1
    41    19    40    1
    42    19    41    1
