@<TRIPOS>MOLECULE
IMPHY003648
 51 53 0 0 0
SMALL
GASTEIGER

@<TRIPOS>ATOM
      1 O           6.3406   -3.5527    0.0000 O.3     1  UNL1       -0.4773
      2 O           4.6087   -3.5327    0.0000 O.2     1  UNL1       -0.2455
      3 O           2.0296    3.6726    0.0000 O.2     1  UNL1       -0.4708
      4 C           3.7320   -0.0081    0.0000 C.3     1  UNL1       -0.0256
      5 C           4.5981   -0.5081    0.0000 C.3     1  UNL1       -0.0255
      6 C           4.5981   -1.5081    0.0000 C.3     1  UNL1        0.0027
      7 C           2.8660   -0.5081    0.0000 C.3     1  UNL1       -0.0382
      8 C           3.7320   -2.0081    0.0000 C.3     1  UNL1       -0.0429
      9 C           2.8660   -1.5081    0.0000 C.3     1  UNL1       -0.0492
     10 C           5.4920    0.0266    0.0000 C.3     1  UNL1       -0.0454
     11 C           3.2320    0.8579    0.0000 C.3     1  UNL1       -0.0430
     12 C           5.4920   -2.0428    0.0000 C.2     1  UNL1        0.0387
     13 C           4.2320    0.8579    0.0000 C.3     1  UNL1       -0.0590
     14 C           4.5981   -2.5081    0.0000 C.3     1  UNL1       -0.0551
     15 C           6.3981   -0.4873    0.0000 C.3     1  UNL1       -0.0337
     16 C           2.0000   -0.0081    0.0000 C.3     1  UNL1       -0.0619
     17 C           6.3981   -1.5289    0.0000 C.2     1  UNL1       -0.0735
     18 C           3.7320    1.7239    0.0000 C.3     1  UNL1       -0.0242
     19 C           5.4804   -3.0427    0.0000 C.2     1  UNL1        0.3330
     20 C           3.2320    2.5900    0.0000 C.ar    1  UNL1       -0.0097
     21 C           3.6388    3.5035    0.0000 C.ar    1  UNL1       -0.0208
     22 C           2.2375    2.6945    0.0000 C.ar    1  UNL1        0.0948
     23 C           2.8956    4.1726    0.0000 C.ar    1  UNL1        0.0919
     24 H           4.5915    0.3419    0.0000 H       1  UNL1        0.0315
     25 H           2.8660    0.1119    0.0000 H       1  UNL1        0.0303
     26 H           3.3335   -2.4831    0.0000 H       1  UNL1        0.0274
     27 H           4.1306   -2.4831    0.0000 H       1  UNL1        0.0274
     28 H           2.2554   -1.4004    0.0000 H       1  UNL1        0.0268
     29 H           2.6540   -2.0907    0.0000 H       1  UNL1        0.0268
     30 H           5.8856    0.5056    0.0000 H       1  UNL1        0.0271
     31 H           5.0874    0.4963    0.0000 H       1  UNL1        0.0271
     32 H           2.7571    1.2564    0.0000 H       1  UNL1        0.0274
     33 H           2.7571    0.4594    0.0000 H       1  UNL1        0.0274
     34 H           4.7690    0.5479    0.0000 H       1  UNL1        0.0235
     35 H           4.5420    1.3948    0.0000 H       1  UNL1        0.0235
     36 H           3.6951    1.1679    0.0000 H       1  UNL1        0.0235
     37 H           3.9781   -2.5081    0.0000 H       1  UNL1        0.0238
     38 H           4.5981   -3.1281    0.0000 H       1  UNL1        0.0238
     39 H           5.2181   -2.5081    0.0000 H       1  UNL1        0.0238
     40 H           7.0089   -0.5934    0.0000 H       1  UNL1        0.0308
     41 H           6.6071    0.0964    0.0000 H       1  UNL1        0.0308
     42 H           2.3100    0.5288    0.0000 H       1  UNL1        0.0233
     43 H           1.4631    0.3019    0.0000 H       1  UNL1        0.0233
     44 H           1.6900   -0.5450    0.0000 H       1  UNL1        0.0233
     45 H           6.9338   -1.8410    0.0000 H       1  UNL1        0.0577
     46 H           4.2070    1.3254    0.0000 H       1  UNL1        0.0314
     47 H           4.2070    2.1225    0.0000 H       1  UNL1        0.0314
     48 H           6.3335   -4.1726    0.0000 H       1  UNL1        0.2954
     49 H           4.2452    3.6324    0.0000 H       1  UNL1        0.0652
     50 H           1.8227    2.2338    0.0000 H       1  UNL1        0.1032
     51 H           2.9604    4.7892    0.0000 H       1  UNL1        0.1029
@<TRIPOS>BOND
     1     1    19    1
     2     1    48    1
     3     2    19    2
     4     3    22   ar
     5     3    23   ar
     6     4     5    1
     7     4     7    1
     8     4    11    1
     9     4    13    1
    10     5     6    1
    11     5    10    1
    12     5    24    1
    13     6     8    1
    14     6    12    1
    15     6    14    1
    16     7     9    1
    17     7    16    1
    18     7    25    1
    19     8     9    1
    20     8    26    1
    21     8    27    1
    22     9    28    1
    23     9    29    1
    24    10    15    1
    25    10    30    1
    26    10    31    1
    27    11    18    1
    28    11    32    1
    29    11    33    1
    30    12    17    2
    31    12    19    1
    32    13    34    1
    33    13    35    1
    34    13    36    1
    35    14    37    1
    36    14    38    1
    37    14    39    1
    38    15    17    1
    39    15    40    1
    40    15    41    1
    41    16    42    1
    42    16    43    1
    43    16    44    1
    44    17    45    1
    45    18    20    1
    46    18    46    1
    47    18    47    1
    48    20    21   ar
    49    20    22   ar
    50    21    23   ar
    51    21    49    1
    52    22    50    1
    53    23    51    1
