@<TRIPOS>MOLECULE
IMPHY005742
 46 48 0 0 0
SMALL
GASTEIGER

@<TRIPOS>ATOM
      1 O           5.1350   -0.3824    0.0000 O.3     1  UNL1       -0.3313
      2 O           6.8671   -0.3824    0.0000 O.3     1  UNL1       -0.4604
      3 O           5.1350   -3.3824    0.0000 O.3     1  UNL1       -0.3864
      4 O           3.4030   -2.3824    0.0000 O.3     1  UNL1       -0.3865
      5 O           6.8671   -2.3824    0.0000 O.3     1  UNL1       -0.3829
      6 O           2.5369   -0.8824    0.0000 O.3     1  UNL1       -0.3924
      7 O           8.4701    2.7846    0.0000 O.2     1  UNL1       -0.4628
      8 O           3.4030    2.6176    0.0000 O.3     1  UNL1       -0.4806
      9 O           5.1350    2.6176    0.0000 O.2     1  UNL1       -0.2510
     10 C           5.1350   -2.3824    0.0000 C.3     1  UNL1        0.1152
     11 C           4.2690   -1.8824    0.0000 C.3     1  UNL1        0.1120
     12 C           6.0010   -1.8824    0.0000 C.3     1  UNL1        0.1454
     13 C           4.2690   -0.8824    0.0000 C.3     1  UNL1        0.1140
     14 C           6.0010   -0.8824    0.0000 C.3     1  UNL1        0.2308
     15 C           3.4030   -0.3824    0.0000 C.3     1  UNL1        0.0731
     16 C           6.8671    0.6176    0.0000 C.ar    1  UNL1        0.1307
     17 C           6.0010    1.1176    0.0000 C.ar    1  UNL1       -0.0043
     18 C           7.7331    1.1176    0.0000 C.ar    1  UNL1        0.0233
     19 C           5.1350    0.6176    0.0000 C.3     1  UNL1       -0.0141
     20 C           6.0010    2.1176    0.0000 C.ar    1  UNL1       -0.0443
     21 C           7.7331    2.1176    0.0000 C.ar    1  UNL1        0.1383
     22 C           6.8671    2.6176    0.0000 C.ar    1  UNL1        0.0206
     23 C           4.2690    1.1176    0.0000 C.3     1  UNL1        0.0489
     24 C           7.0763    3.5894    0.0000 C.ar    1  UNL1       -0.0161
     25 C           8.0650    3.6924    0.0000 C.ar    1  UNL1        0.0931
     26 C           4.2690    2.1176    0.0000 C.2     1  UNL1        0.3050
     27 H           5.6720   -2.6924    0.0000 H       1  UNL1        0.0648
     28 H           4.2690   -2.5024    0.0000 H       1  UNL1        0.0647
     29 H           6.5380   -1.5724    0.0000 H       1  UNL1        0.0683
     30 H           4.2690   -0.2624    0.0000 H       1  UNL1        0.0647
     31 H           6.0010   -0.2624    0.0000 H       1  UNL1        0.1084
     32 H           3.8015    0.0925    0.0000 H       1  UNL1        0.0584
     33 H           3.0044    0.0925    0.0000 H       1  UNL1        0.0584
     34 H           4.5981   -3.6924    0.0000 H       1  UNL1        0.2100
     35 H           3.4030   -3.0024    0.0000 H       1  UNL1        0.2100
     36 H           6.8671   -3.0024    0.0000 H       1  UNL1        0.2102
     37 H           8.2700    0.8076    0.0000 H       1  UNL1        0.0691
     38 H           4.7365    0.1426    0.0000 H       1  UNL1        0.0319
     39 H           5.5335    0.1426    0.0000 H       1  UNL1        0.0319
     40 H           2.0000   -0.5724    0.0000 H       1  UNL1        0.2095
     41 H           5.4641    2.4276    0.0000 H       1  UNL1        0.0628
     42 H           3.6584    1.2252    0.0000 H       1  UNL1        0.0381
     43 H           4.0569    0.5350    0.0000 H       1  UNL1        0.0381
     44 H           6.6622    4.0508    0.0000 H       1  UNL1        0.0655
     45 H           8.3750    4.2294    0.0000 H       1  UNL1        0.1029
     46 H           3.4030    3.2376    0.0000 H       1  UNL1        0.2951
@<TRIPOS>BOND
     1     1    13    1
     2     1    14    1
     3    14     2    1
     4     2    16    1
     5    10     3    1
     6     3    34    1
     7    11     4    1
     8     4    35    1
     9    12     5    1
    10     5    36    1
    11     6    15    1
    12     6    40    1
    13     7    21   ar
    14     7    25   ar
    15     8    26    1
    16     8    46    1
    17     9    26    2
    18    10    11    1
    19    10    12    1
    20    10    27    1
    21    11    13    1
    22    11    28    1
    23    12    14    1
    24    12    29    1
    25    13    15    1
    26    13    30    1
    27    14    31    1
    28    15    32    1
    29    15    33    1
    30    16    17   ar
    31    16    18   ar
    32    17    19    1
    33    17    20   ar
    34    18    21   ar
    35    18    37    1
    36    19    23    1
    37    19    38    1
    38    19    39    1
    39    20    22   ar
    40    20    41    1
    41    21    22   ar
    42    22    24   ar
    43    23    26    1
    44    23    42    1
    45    23    43    1
    46    24    25   ar
    47    24    44    1
    48    25    45    1
