@<TRIPOS>MOLECULE
IMPHY007670
 39 41 0 0 0
SMALL
GASTEIGER

@<TRIPOS>ATOM
      1 O           6.4783   -1.0720    0.0000 O.3     1  UNL1       -0.4605
      2 O           8.0619   -0.2673    0.0000 O.2     1  UNL1       -0.2505
      3 C           3.8000   -0.7673    0.0000 C.3     1  UNL1       -0.0074
      4 C           4.6660   -1.2673    0.0000 C.3     1  UNL1       -0.0060
      5 C           3.8000    0.2327    0.0000 C.2     1  UNL1       -0.0642
      6 C           5.5321   -0.7673    0.0000 C.3     1  UNL1        0.1108
      7 C           5.5321    0.2327    0.0000 C.3     1  UNL1        0.0272
      8 C           2.9061   -1.3020    0.0000 C.3     1  UNL1       -0.0438
      9 C           2.9061    0.7674    0.0000 C.3     1  UNL1       -0.0222
     10 C           4.6660    0.7327    0.0000 C.2     1  UNL1       -0.0767
     11 C           6.4783    0.5374    0.0000 C.3     1  UNL1        0.0632
     12 C           2.0000   -0.7881    0.0000 C.3     1  UNL1       -0.0517
     13 C           2.0000    0.2535    0.0000 C.3     1  UNL1       -0.0467
     14 C           3.8000   -1.7673    0.0000 C.3     1  UNL1       -0.0557
     15 C           7.0619   -0.2673    0.0000 C.2     1  UNL1        0.3109
     16 C           2.9176    1.7673    0.0000 C.3     1  UNL1       -0.0587
     17 C           6.7889    1.4880    0.0000 C.3     1  UNL1       -0.0516
     18 H           4.2675   -1.7422    0.0000 H       1  UNL1        0.0309
     19 H           5.0646   -1.7422    0.0000 H       1  UNL1        0.0309
     20 H           5.6220   -1.6125    0.0000 H       1  UNL1        0.0740
     21 H           5.6220    1.0779    0.0000 H       1  UNL1        0.0387
     22 H           2.5124   -1.7810    0.0000 H       1  UNL1        0.0274
     23 H           3.3107   -1.7718    0.0000 H       1  UNL1        0.0274
     24 H           2.3721    1.0825    0.0000 H       1  UNL1        0.0343
     25 H           4.6660    1.3527    0.0000 H       1  UNL1        0.0576
     26 H           7.0908    0.6336    0.0000 H       1  UNL1        0.0418
     27 H           1.3891   -0.6820    0.0000 H       1  UNL1        0.0266
     28 H           1.7909   -1.3718    0.0000 H       1  UNL1        0.0266
     29 H           1.7909    0.8372    0.0000 H       1  UNL1        0.0271
     30 H           1.3891    0.1474    0.0000 H       1  UNL1        0.0271
     31 H           3.1800   -1.7673    0.0000 H       1  UNL1        0.0238
     32 H           3.8000   -2.3873    0.0000 H       1  UNL1        0.0238
     33 H           4.4200   -1.7673    0.0000 H       1  UNL1        0.0238
     34 H           3.5376    1.7601    0.0000 H       1  UNL1        0.0235
     35 H           2.9248    2.3873    0.0000 H       1  UNL1        0.0235
     36 H           2.2977    1.7745    0.0000 H       1  UNL1        0.0235
     37 H           7.3783    1.2953    0.0000 H       1  UNL1        0.0238
     38 H           6.9816    2.0773    0.0000 H       1  UNL1        0.0238
     39 H           6.1996    1.6806    0.0000 H       1  UNL1        0.0238
@<TRIPOS>BOND
     1     1     6    1
     2     1    15    1
     3     2    15    2
     4     3     4    1
     5     3     5    1
     6     3     8    1
     7     3    14    1
     8     4     6    1
     9     4    18    1
    10     4    19    1
    11     5     9    1
    12     5    10    2
    13     6     7    1
    14     6    20    1
    15     7    10    1
    16     7    11    1
    17     7    21    1
    18     8    12    1
    19     8    22    1
    20     8    23    1
    21     9    13    1
    22     9    16    1
    23     9    24    1
    24    10    25    1
    25    11    15    1
    26    11    17    1
    27    11    26    1
    28    12    13    1
    29    12    27    1
    30    12    28    1
    31    13    29    1
    32    13    30    1
    33    14    31    1
    34    14    32    1
    35    14    33    1
    36    16    34    1
    37    16    35    1
    38    16    36    1
    39    17    37    1
    40    17    38    1
    41    17    39    1
