@<TRIPOS>MOLECULE
IMPHY007839
 52 56 0 0 0
SMALL
GASTEIGER

@<TRIPOS>ATOM
      1 O           4.7340    0.0563    0.0000 O.3     1  UNL1       -0.4833
      2 O           5.6521    2.6048    0.0000 O.3     1  UNL1       -0.4879
      3 O           3.2118   -3.0235    0.0000 O.3     1  UNL1       -0.4838
      4 O           2.1360    1.5563    0.0000 O.2     1  UNL1       -0.2912
      5 O           2.0116    4.6933    0.0000 O.3     1  UNL1       -0.4914
      6 O           3.8149    5.7530    0.0000 O.3     1  UNL1       -0.4913
      7 O           4.7624   -5.7171    0.0000 O.3     1  UNL1       -0.3906
      8 C           3.8680    1.5563    0.0000 C.3     1  UNL1        0.0908
      9 C           4.7340    1.0563    0.0000 C.3     1  UNL1        0.1478
     10 C           3.8680   -0.4437    0.0000 C.ar    1  UNL1        0.1383
     11 C           3.8520    2.5978    0.0000 C.ar    1  UNL1        0.0122
     12 C           3.0020    1.0563    0.0000 C.2     1  UNL1        0.1778
     13 C           3.8841   -1.4852    0.0000 C.ar    1  UNL1        0.0404
     14 C           5.6440    1.5632    0.0000 C.3     1  UNL1        0.1273
     15 C           3.0020    0.0563    0.0000 C.ar    1  UNL1        0.0603
     16 C           4.6571   -2.1741    0.0000 C.3     1  UNL1        0.0205
     17 C           4.2424   -3.1229    0.0000 C.3     1  UNL1        0.1273
     18 C           2.9860   -2.0129    0.0000 C.ar    1  UNL1        0.1282
     19 C           4.7500    3.1256    0.0000 C.ar    1  UNL1        0.1283
     20 C           2.0920   -0.4505    0.0000 C.ar    1  UNL1       -0.0442
     21 C           2.9000    3.1184    0.0000 C.ar    1  UNL1       -0.0088
     22 C           2.0840   -1.4921    0.0000 C.ar    1  UNL1       -0.0187
     23 C           4.7491   -3.9851    0.0000 C.2     1  UNL1       -0.0113
     24 C           4.7584    4.2105    0.0000 C.ar    1  UNL1        0.0257
     25 C           2.8833    4.2033    0.0000 C.ar    1  UNL1        0.1620
     26 C           3.8187    4.7530    0.0000 C.ar    1  UNL1        0.1650
     27 C           4.2558   -4.8549    0.0000 C.3     1  UNL1        0.0684
     28 C           5.7491   -3.9774    0.0000 C.2     1  UNL1       -0.0938
     29 C           2.0000    5.6932    0.0000 C.3     1  UNL1        0.0790
     30 C           4.6790    6.2564    0.0000 C.3     1  UNL1        0.0790
     31 H           3.1286    1.9756    0.0000 H       1  UNL1        0.0468
     32 H           5.4669    0.6257    0.0000 H       1  UNL1        0.0778
     33 H           5.8486    0.9779    0.0000 H       1  UNL1        0.0734
     34 H           6.2557    1.6645    0.0000 H       1  UNL1        0.0734
     35 H           5.1960   -2.4807    0.0000 H       1  UNL1        0.0355
     36 H           5.0187   -1.6704    0.0000 H       1  UNL1        0.0355
     37 H           3.9090   -3.6456    0.0000 H       1  UNL1        0.0785
     38 H           1.5587   -0.1343    0.0000 H       1  UNL1        0.0627
     39 H           2.3692    2.7982    0.0000 H       1  UNL1        0.0659
     40 H           1.5458   -1.8001    0.0000 H       1  UNL1        0.0654
     41 H           5.2965    4.5185    0.0000 H       1  UNL1        0.0692
     42 H           3.7778   -4.4600    0.0000 H       1  UNL1        0.0605
     43 H           3.7839   -5.2571    0.0000 H       1  UNL1        0.0605
     44 H           6.0632   -4.5119    0.0000 H       1  UNL1        0.0536
     45 H           6.0549   -3.4380    0.0000 H       1  UNL1        0.0536
     46 H           4.4566   -6.2564    0.0000 H       1  UNL1        0.2098
     47 H           2.6200    5.7004    0.0000 H       1  UNL1        0.0660
     48 H           1.9928    6.3132    0.0000 H       1  UNL1        0.0660
     49 H           1.3800    5.6860    0.0000 H       1  UNL1        0.0660
     50 H           4.9910    5.7206    0.0000 H       1  UNL1        0.0660
     51 H           5.2147    6.5684    0.0000 H       1  UNL1        0.0660
     52 H           4.3669    6.7921    0.0000 H       1  UNL1        0.0660
@<TRIPOS>BOND
     1     1     9    1
     2     1    10    1
     3     2    14    1
     4     2    19    1
     5     3    17    1
     6     3    18    1
     7     4    12    2
     8     5    25    1
     9     5    29    1
    10     6    26    1
    11     6    30    1
    12     7    27    1
    13     7    46    1
    14     8     9    1
    15     8    11    1
    16     8    12    1
    17     8    31    1
    18     9    14    1
    19     9    32    1
    20    10    13   ar
    21    10    15   ar
    22    11    19   ar
    23    11    21   ar
    24    12    15    1
    25    13    16    1
    26    13    18   ar
    27    14    33    1
    28    14    34    1
    29    15    20   ar
    30    16    17    1
    31    16    35    1
    32    16    36    1
    33    17    23    1
    34    17    37    1
    35    18    22   ar
    36    19    24   ar
    37    20    22   ar
    38    20    38    1
    39    21    25   ar
    40    21    39    1
    41    22    40    1
    42    23    27    1
    43    23    28    2
    44    24    26   ar
    45    24    41    1
    46    25    26   ar
    47    27    42    1
    48    27    43    1
    49    28    44    1
    50    28    45    1
    51    29    47    1
    52    29    48    1
    53    29    49    1
    54    30    50    1
    55    30    51    1
    56    30    52    1
