@<TRIPOS>MOLECULE
IMPHY002525
 75 79 0 0 0
SMALL
GASTEIGER

@<TRIPOS>ATOM
      1 O           2.9999   -2.2851    0.0000 O.3     1  UNL1       -0.4675
      2 O           3.0200   -0.5532    0.0000 O.2     1  UNL1       -0.2502
      3 O          11.6907   -1.4899    0.0000 O.2     1  UNL1       -0.2872
      4 O          10.8151    3.2104    0.0000 O.3     1  UNL1       -0.5033
      5 O          12.6345    2.1786    0.0000 O.3     1  UNL1       -0.5027
      6 O          13.5025    0.5836    0.0000 O.3     1  UNL1       -0.4770
      7 O          12.6307   -0.9131    0.0000 O.2     1  UNL1       -0.2450
      8 C           7.2946   -0.9658    0.0000 C.3     1  UNL1       -0.0196
      9 C           6.3846   -1.4726    0.0000 C.3     1  UNL1       -0.0284
     10 C           8.1606   -1.4658    0.0000 C.3     1  UNL1       -0.0042
     11 C           6.3765   -2.5142    0.0000 C.3     1  UNL1       -0.0286
     12 C           8.1766   -2.5073    0.0000 C.3     1  UNL1       -0.0429
     13 C           7.2786   -3.0350    0.0000 C.3     1  UNL1       -0.0465
     14 C           7.2946    0.0342    0.0000 C.3     1  UNL1       -0.0455
     15 C           5.4577   -0.9086    0.0000 C.3     1  UNL1       -0.0336
     16 C           9.0266   -0.9658    0.0000 C.2     1  UNL1       -0.0493
     17 C           5.4411   -3.0640    0.0000 C.3     1  UNL1       -0.0464
     18 C           9.0266    0.0342    0.0000 C.3     1  UNL1        0.0156
     19 C           4.5098   -1.4365    0.0000 C.3     1  UNL1        0.0653
     20 C           8.1606    0.5342    0.0000 C.3     1  UNL1       -0.0393
     21 C           6.4285   -0.4658    0.0000 C.3     1  UNL1       -0.0585
     22 C           4.5015   -2.5215    0.0000 C.3     1  UNL1       -0.0370
     23 C           9.0266   -1.9658    0.0000 C.3     1  UNL1       -0.0553
     24 C           6.3688   -3.5142    0.0000 C.3     1  UNL1       -0.0593
     25 C           9.9206    0.5689    0.0000 C.ar    1  UNL1       -0.0222
     26 C           9.9206   -1.5004    0.0000 C.2     1  UNL1       -0.0137
     27 C           9.0266    1.0342    0.0000 C.3     1  UNL1       -0.0517
     28 C           4.0199   -0.5647    0.0000 C.3     1  UNL1       -0.0494
     29 C           3.5099   -1.4249    0.0000 C.2     1  UNL1        0.3128
     30 C          10.8266    0.0550    0.0000 C.ar    1  UNL1        0.0434
     31 C          10.8266   -0.9866    0.0000 C.2     1  UNL1        0.1873
     32 C           9.8955    1.6536    0.0000 C.ar    1  UNL1       -0.0118
     33 C          11.7704    0.5903    0.0000 C.ar    1  UNL1        0.1148
     34 C          10.8266    2.2105    0.0000 C.ar    1  UNL1        0.1594
     35 C          11.7704    1.6753    0.0000 C.ar    1  UNL1        0.1732
     36 C           2.0000   -2.2736    0.0000 C.3     1  UNL1        0.0817
     37 C          12.6345    0.0869    0.0000 C.2     1  UNL1        0.3412
     38 H           7.1157   -1.9061    0.0000 H       1  UNL1        0.0312
     39 H           8.3947   -3.0877    0.0000 H       1  UNL1        0.0274
     40 H           8.7858   -2.3918    0.0000 H       1  UNL1        0.0274
     41 H           6.8813   -3.5110    0.0000 H       1  UNL1        0.0271
     42 H           7.6796   -3.5079    0.0000 H       1  UNL1        0.0271
     43 H           7.0825    0.6168    0.0000 H       1  UNL1        0.0271
     44 H           6.6840   -0.0734    0.0000 H       1  UNL1        0.0271
     45 H           5.8659   -0.4419    0.0000 H       1  UNL1        0.0279
     46 H           5.0678   -0.4265    0.0000 H       1  UNL1        0.0279
     47 H           5.0438   -3.5399    0.0000 H       1  UNL1        0.0271
     48 H           5.8421   -3.5368    0.0000 H       1  UNL1        0.0271
     49 H           8.5591    1.0092    0.0000 H       1  UNL1        0.0277
     50 H           7.7621    1.0092    0.0000 H       1  UNL1        0.0277
     51 H           6.7385    0.0711    0.0000 H       1  UNL1        0.0235
     52 H           5.8916   -0.1558    0.0000 H       1  UNL1        0.0235
     53 H           6.1185   -1.0027    0.0000 H       1  UNL1        0.0235
     54 H           3.8915   -2.4107    0.0000 H       1  UNL1        0.0276
     55 H           4.2879   -3.1035    0.0000 H       1  UNL1        0.0276
     56 H           8.7166   -2.5027    0.0000 H       1  UNL1        0.0238
     57 H           9.5636   -2.2758    0.0000 H       1  UNL1        0.0238
     58 H           9.3366   -1.4288    0.0000 H       1  UNL1        0.0238
     59 H           5.7488   -3.5094    0.0000 H       1  UNL1        0.0235
     60 H           6.3640   -4.1342    0.0000 H       1  UNL1        0.0235
     61 H           6.9888   -3.5190    0.0000 H       1  UNL1        0.0235
     62 H           9.9134   -2.1204    0.0000 H       1  UNL1        0.0656
     63 H           9.6466    1.0342    0.0000 H       1  UNL1        0.0241
     64 H           9.0266    1.6542    0.0000 H       1  UNL1        0.0241
     65 H           8.4066    1.0342    0.0000 H       1  UNL1        0.0241
     66 H           4.5604   -0.2610    0.0000 H       1  UNL1        0.0240
     67 H           3.7161   -0.0243    0.0000 H       1  UNL1        0.0240
     68 H           3.4794   -0.8685    0.0000 H       1  UNL1        0.0240
     69 H           9.3527    1.9532    0.0000 H       1  UNL1        0.0658
     70 H           2.0072   -1.6536    0.0000 H       1  UNL1        0.0661
     71 H           1.3800   -2.2664    0.0000 H       1  UNL1        0.0661
     72 H           1.9928   -2.8935    0.0000 H       1  UNL1        0.0661
     73 H          10.2746    3.5142    0.0000 H       1  UNL1        0.2923
     74 H          12.6321    2.7986    0.0000 H       1  UNL1        0.2923
     75 H          14.0382    0.2715    0.0000 H       1  UNL1        0.2954
@<TRIPOS>BOND
     1     1    29    1
     2     1    36    1
     3     2    29    2
     4     3    31    2
     5     4    34    1
     6     4    73    1
     7     5    35    1
     8     5    74    1
     9     6    37    1
    10     6    75    1
    11     7    37    2
    12     8     9    1
    13     8    10    1
    14     8    14    1
    15     8    21    1
    16     9    11    1
    17     9    15    1
    18     9    38    1
    19    10    12    1
    20    10    16    1
    21    10    23    1
    22    11    13    1
    23    11    17    1
    24    11    24    1
    25    12    13    1
    26    12    39    1
    27    12    40    1
    28    13    41    1
    29    13    42    1
    30    14    20    1
    31    14    43    1
    32    14    44    1
    33    15    19    1
    34    15    45    1
    35    15    46    1
    36    16    18    1
    37    16    26    2
    38    17    22    1
    39    17    47    1
    40    17    48    1
    41    18    20    1
    42    18    25    1
    43    18    27    1
    44    19    22    1
    45    19    28    1
    46    19    29    1
    47    20    49    1
    48    20    50    1
    49    21    51    1
    50    21    52    1
    51    21    53    1
    52    22    54    1
    53    22    55    1
    54    23    56    1
    55    23    57    1
    56    23    58    1
    57    24    59    1
    58    24    60    1
    59    24    61    1
    60    25    30   ar
    61    25    32   ar
    62    26    31    1
    63    26    62    1
    64    27    63    1
    65    27    64    1
    66    27    65    1
    67    28    66    1
    68    28    67    1
    69    28    68    1
    70    30    31    1
    71    30    33   ar
    72    32    34   ar
    73    32    69    1
    74    33    35   ar
    75    33    37    1
    76    34    35   ar
    77    36    70    1
    78    36    71    1
    79    36    72    1
