@<TRIPOS>MOLECULE
IMPHY008585
 59 62 0 0 0
SMALL
GASTEIGER

@<TRIPOS>ATOM
      1 O           8.5991   -2.7819    0.0000 O.3     1  UNL1       -0.3302
      2 O          10.3312   -2.7819    0.0000 O.3     1  UNL1       -0.4606
      3 O           6.8671   -4.7819    0.0000 O.3     1  UNL1       -0.3864
      4 O           8.5991   -5.7819    0.0000 O.3     1  UNL1       -0.3864
      5 O          10.3312   -4.7819    0.0000 O.3     1  UNL1       -0.3829
      6 O           6.0010   -3.2819    0.0000 O.3     1  UNL1       -0.4616
      7 O          12.0871    0.2806    0.0000 O.2     1  UNL1       -0.4618
      8 O           8.5849    0.2973    0.0000 O.3     1  UNL1       -0.5058
      9 O           5.1350   -1.7819    0.0000 O.2     1  UNL1       -0.2502
     10 O           9.4948    1.7906    0.0000 O.2     1  UNL1       -0.2863
     11 O           2.5369   -3.2819    0.0000 O.3     1  UNL1       -0.4802
     12 O           3.4030   -1.7819    0.0000 O.2     1  UNL1       -0.2504
     13 O          11.2423    5.7839    0.0000 O.3     1  UNL1       -0.5068
     14 C           7.7331   -4.2819    0.0000 C.3     1  UNL1        0.1130
     15 C           8.5991   -4.7819    0.0000 C.3     1  UNL1        0.1152
     16 C           7.7331   -3.2819    0.0000 C.3     1  UNL1        0.1250
     17 C           9.4651   -4.2819    0.0000 C.3     1  UNL1        0.1454
     18 C           9.4651   -3.2819    0.0000 C.3     1  UNL1        0.2308
     19 C           6.8671   -2.7819    0.0000 C.3     1  UNL1        0.1212
     20 C          10.3312   -1.7819    0.0000 C.ar    1  UNL1        0.1310
     21 C          11.2312   -1.2576    0.0000 C.ar    1  UNL1        0.0234
     22 C           9.4311   -1.2576    0.0000 C.ar    1  UNL1        0.0226
     23 C          11.2192   -0.2160    0.0000 C.ar    1  UNL1        0.1454
     24 C           5.1350   -2.7819    0.0000 C.2     1  UNL1        0.3180
     25 C          10.3551    0.2873    0.0000 C.ar    1  UNL1        0.1060
     26 C           9.4431   -0.2160    0.0000 C.ar    1  UNL1        0.1347
     27 C          10.3589    1.2873    0.0000 C.ar    1  UNL1        0.2037
     28 C           4.2690   -3.2819    0.0000 C.3     1  UNL1        0.1418
     29 C          11.2269    1.7840    0.0000 C.ar    1  UNL1        0.0644
     30 C          12.0910    1.2806    0.0000 C.ar    1  UNL1        0.1038
     31 C          11.2307    2.7840    0.0000 C.ar    1  UNL1       -0.0110
     32 C           3.4030   -2.7819    0.0000 C.2     1  UNL1        0.3155
     33 C          10.3667    3.2873    0.0000 C.ar    1  UNL1       -0.0504
     34 C          12.0987    3.2806    0.0000 C.ar    1  UNL1       -0.0504
     35 C          10.3705    4.2873    0.0000 C.ar    1  UNL1       -0.0196
     36 C          12.1025    4.2806    0.0000 C.ar    1  UNL1       -0.0196
     37 C          11.2385    4.7840    0.0000 C.ar    1  UNL1        0.1169
     38 H           7.7331   -4.9019    0.0000 H       1  UNL1        0.0647
     39 H           9.1360   -5.0919    0.0000 H       1  UNL1        0.0648
     40 H           7.7331   -2.6619    0.0000 H       1  UNL1        0.0658
     41 H           9.4651   -4.9019    0.0000 H       1  UNL1        0.0683
     42 H          10.0021   -3.5919    0.0000 H       1  UNL1        0.1084
     43 H           7.2656   -2.3069    0.0000 H       1  UNL1        0.0724
     44 H           6.4685   -2.3069    0.0000 H       1  UNL1        0.0724
     45 H           6.8671   -5.4019    0.0000 H       1  UNL1        0.2100
     46 H           8.0622   -6.0919    0.0000 H       1  UNL1        0.2100
     47 H          10.3312   -5.4019    0.0000 H       1  UNL1        0.2102
     48 H          11.7705   -1.5634    0.0000 H       1  UNL1        0.0691
     49 H           8.8918   -1.5634    0.0000 H       1  UNL1        0.0691
     50 H           3.8705   -3.7568    0.0000 H       1  UNL1        0.0493
     51 H           4.6675   -3.7568    0.0000 H       1  UNL1        0.0493
     52 H          12.6291    1.5886    0.0000 H       1  UNL1        0.1037
     53 H           8.0433   -0.0044    0.0000 H       1  UNL1        0.2922
     54 H           9.8285    2.9794    0.0000 H       1  UNL1        0.0625
     55 H          12.6344    2.9686    0.0000 H       1  UNL1        0.0625
     56 H           9.8348    4.5994    0.0000 H       1  UNL1        0.0654
     57 H          12.6407    4.5885    0.0000 H       1  UNL1        0.0654
     58 H           2.0000   -2.9719    0.0000 H       1  UNL1        0.2951
     59 H          11.7804    6.0919    0.0000 H       1  UNL1        0.2921
@<TRIPOS>BOND
     1     1    16    1
     2     1    18    1
     3    18     2    1
     4     2    20    1
     5    14     3    1
     6     3    45    1
     7    15     4    1
     8     4    46    1
     9    17     5    1
    10     5    47    1
    11     6    19    1
    12     6    24    1
    13     7    23   ar
    14     7    30   ar
    15     8    26    1
    16     8    53    1
    17     9    24    2
    18    10    27    2
    19    11    32    1
    20    11    58    1
    21    12    32    2
    22    13    37    1
    23    13    59    1
    24    14    15    1
    25    14    16    1
    26    14    38    1
    27    15    17    1
    28    15    39    1
    29    16    19    1
    30    16    40    1
    31    17    18    1
    32    17    41    1
    33    18    42    1
    34    19    43    1
    35    19    44    1
    36    20    21   ar
    37    20    22   ar
    38    21    23   ar
    39    21    48    1
    40    22    26   ar
    41    22    49    1
    42    23    25   ar
    43    24    28    1
    44    25    26   ar
    45    25    27   ar
    46    27    29   ar
    47    28    32    1
    48    28    50    1
    49    28    51    1
    50    29    30   ar
    51    29    31    1
    52    30    52    1
    53    31    33   ar
    54    31    34   ar
    55    33    35   ar
    56    33    54    1
    57    34    36   ar
    58    34    55    1
    59    35    37   ar
    60    35    56    1
    61    36    37   ar
    62    36    57    1
