@<TRIPOS>MOLECULE
IMPHY016783
 20 20 0 0 0
SMALL
GASTEIGER

@<TRIPOS>ATOM
      1 O           2.8660    1.7500    0.0000 O.2     1  UNL1       -0.2923
      2 C           3.7320    0.2500    0.0000 C.ar    1  UNL1        0.0200
      3 C           2.8660   -0.2500    0.0000 C.ar    1  UNL1       -0.0400
      4 C           4.5981   -0.2500    0.0000 C.ar    1  UNL1       -0.0510
      5 C           2.8660   -1.2500    0.0000 C.ar    1  UNL1       -0.0582
      6 C           2.0000    0.2500    0.0000 C.3     1  UNL1       -0.0390
      7 C           3.7320    1.2500    0.0000 C.2     1  UNL1        0.1604
      8 C           4.5981   -1.2500    0.0000 C.ar    1  UNL1       -0.0611
      9 C           3.7320   -1.7500    0.0000 C.ar    1  UNL1       -0.0615
     10 C           4.5981    1.7500    0.0000 C.3     1  UNL1       -0.0014
     11 H           5.1350    0.0600    0.0000 H       1  UNL1        0.0625
     12 H           2.3291   -1.5600    0.0000 H       1  UNL1        0.0620
     13 H           2.3100    0.7869    0.0000 H       1  UNL1        0.0278
     14 H           1.4631    0.5600    0.0000 H       1  UNL1        0.0278
     15 H           1.6900   -0.2869    0.0000 H       1  UNL1        0.0278
     16 H           5.1350   -1.5600    0.0000 H       1  UNL1        0.0618
     17 H           3.7320   -2.3700    0.0000 H       1  UNL1        0.0618
     18 H           4.9081    1.2131    0.0000 H       1  UNL1        0.0309
     19 H           5.1350    2.0600    0.0000 H       1  UNL1        0.0309
     20 H           4.2881    2.2869    0.0000 H       1  UNL1        0.0309
@<TRIPOS>BOND
     1     1     7    2
     2     2     3   ar
     3     2     4   ar
     4     2     7    1
     5     3     5   ar
     6     3     6    1
     7     4     8   ar
     8     4    11    1
     9     5     9   ar
    10     5    12    1
    11     6    13    1
    12     6    14    1
    13     6    15    1
    14     7    10    1
    15     8     9   ar
    16     8    16    1
    17     9    17    1
    18    10    18    1
    19    10    19    1
    20    10    20    1
