@<TRIPOS>MOLECULE
IMPHY005910
 54 57 0 0 0
SMALL
GASTEIGER

@<TRIPOS>ATOM
      1 O           3.9061   -0.3017    0.0000 O.3     1  UNL1       -0.4811
      2 O           7.4260   -0.3017    0.0000 O.2     1  UNL1       -0.4616
      3 O           5.6660    2.7329    0.0000 O.3     1  UNL1       -0.5052
      4 O           7.4144    2.7675    0.0000 O.2     1  UNL1       -0.2863
      5 O          11.7884    3.2671    0.0000 O.3     1  UNL1       -0.5068
      6 C           3.0000    0.2121    0.0000 C.3     1  UNL1        0.1235
      7 C           4.8000    0.2329    0.0000 C.ar    1  UNL1        0.1393
      8 C           5.6660   -0.2671    0.0000 C.ar    1  UNL1        0.0417
      9 C           4.8000    1.2329    0.0000 C.ar    1  UNL1        0.0591
     10 C           6.5320    0.2329    0.0000 C.ar    1  UNL1        0.1489
     11 C           3.0000    1.2537    0.0000 C.2     1  UNL1       -0.0408
     12 C           6.5320    1.2329    0.0000 C.ar    1  UNL1        0.1069
     13 C           5.6660    1.7329    0.0000 C.ar    1  UNL1        0.1418
     14 C           3.9061    1.7676    0.0000 C.2     1  UNL1       -0.0478
     15 C           5.6660   -1.2671    0.0000 C.3     1  UNL1       -0.0022
     16 C           2.0000    0.2083    0.0000 C.3     1  UNL1       -0.0215
     17 C           2.5033   -0.6558    0.0000 C.3     1  UNL1       -0.0215
     18 C           7.4260    1.7676    0.0000 C.ar    1  UNL1        0.2037
     19 C           8.3321    1.2537    0.0000 C.ar    1  UNL1        0.0644
     20 C           4.8000   -1.7671    0.0000 C.2     1  UNL1       -0.0807
     21 C           8.3321    0.2121    0.0000 C.ar    1  UNL1        0.1039
     22 C           9.1962    1.7571    0.0000 C.ar    1  UNL1       -0.0110
     23 C           4.8000   -2.7671    0.0000 C.2     1  UNL1       -0.0793
     24 C          10.0641    1.2604    0.0000 C.ar    1  UNL1       -0.0504
     25 C           9.1923    2.7571    0.0000 C.ar    1  UNL1       -0.0504
     26 C           3.9340   -3.2671    0.0000 C.3     1  UNL1       -0.0440
     27 C           5.6660   -3.2671    0.0000 C.3     1  UNL1       -0.0440
     28 C          10.9282    1.7638    0.0000 C.ar    1  UNL1       -0.0196
     29 C          10.0564    3.2604    0.0000 C.ar    1  UNL1       -0.0196
     30 C          10.9243    2.7637    0.0000 C.ar    1  UNL1        0.1169
     31 H           2.4643    1.5658    0.0000 H       1  UNL1        0.0611
     32 H           3.9132    2.3875    0.0000 H       1  UNL1        0.0624
     33 H           5.8781   -1.8497    0.0000 H       1  UNL1        0.0358
     34 H           6.2766   -1.1594    0.0000 H       1  UNL1        0.0358
     35 H           1.9976    0.8282    0.0000 H       1  UNL1        0.0271
     36 H           1.3800    0.2059    0.0000 H       1  UNL1        0.0271
     37 H           2.0024   -0.4117    0.0000 H       1  UNL1        0.0271
     38 H           1.9652   -0.3479    0.0000 H       1  UNL1        0.0271
     39 H           2.1954   -1.1940    0.0000 H       1  UNL1        0.0271
     40 H           3.0415   -0.9638    0.0000 H       1  UNL1        0.0271
     41 H           4.2631   -1.4571    0.0000 H       1  UNL1        0.0575
     42 H           8.8678   -0.1000    0.0000 H       1  UNL1        0.1037
     43 H           5.1291    3.0429    0.0000 H       1  UNL1        0.2922
     44 H          10.0665    0.6404    0.0000 H       1  UNL1        0.0625
     45 H           8.6542    3.0650    0.0000 H       1  UNL1        0.0625
     46 H           5.3560   -3.8040    0.0000 H       1  UNL1        0.0274
     47 H           6.2030   -3.5771    0.0000 H       1  UNL1        0.0274
     48 H           5.9760   -2.7301    0.0000 H       1  UNL1        0.0274
     49 H           3.6240   -2.7301    0.0000 H       1  UNL1        0.0274
     50 H           3.3970   -3.5771    0.0000 H       1  UNL1        0.0274
     51 H           4.2440   -3.8040    0.0000 H       1  UNL1        0.0274
     52 H          11.4663    1.4558    0.0000 H       1  UNL1        0.0654
     53 H          10.0540    3.8804    0.0000 H       1  UNL1        0.0654
     54 H          12.3266    2.9592    0.0000 H       1  UNL1        0.2921
@<TRIPOS>BOND
     1     1     6    1
     2     1     7    1
     3     2    10   ar
     4     2    21   ar
     5     3    13    1
     6     3    43    1
     7     4    18    2
     8     5    30    1
     9     5    54    1
    10     6    11    1
    11     6    16    1
    12     6    17    1
    13     7     8   ar
    14     7     9   ar
    15     8    10   ar
    16     8    15    1
    17     9    13   ar
    18     9    14    1
    19    10    12   ar
    20    11    14    2
    21    11    31    1
    22    12    13   ar
    23    12    18   ar
    24    14    32    1
    25    15    20    1
    26    15    33    1
    27    15    34    1
    28    16    35    1
    29    16    36    1
    30    16    37    1
    31    17    38    1
    32    17    39    1
    33    17    40    1
    34    18    19   ar
    35    19    21   ar
    36    19    22    1
    37    20    23    2
    38    20    41    1
    39    21    42    1
    40    22    24   ar
    41    22    25   ar
    42    23    26    1
    43    23    27    1
    44    24    28   ar
    45    24    44    1
    46    25    29   ar
    47    25    45    1
    48    26    49    1
    49    26    50    1
    50    26    51    1
    51    27    46    1
    52    27    47    1
    53    27    48    1
    54    28    30   ar
    55    28    52    1
    56    29    30   ar
    57    29    53    1
