@<TRIPOS>MOLECULE
IMPHY016505
 40 41 0 0 0
SMALL
GASTEIGER

@<TRIPOS>ATOM
      1 O           2.8660   -2.2032    0.0000 O.2     1  UNL1       -0.3004
      2 C           4.5981   -0.2032    0.0000 C.3     1  UNL1       -0.0158
      3 C           4.5981    0.7968    0.0000 C.3     1  UNL1       -0.0293
      4 C           5.4920    1.3315    0.0000 C.3     1  UNL1       -0.0315
      5 C           5.4920   -0.7379    0.0000 C.3     1  UNL1       -0.0464
      6 C           3.7320   -0.7032    0.0000 C.3     1  UNL1        0.0409
      7 C           3.7320    1.2968    0.0000 C.3     1  UNL1       -0.0455
      8 C           6.3981    0.8176    0.0000 C.3     1  UNL1       -0.0476
      9 C           6.3981   -0.2240    0.0000 C.3     1  UNL1       -0.0520
     10 C           4.5981   -1.2032    0.0000 C.3     1  UNL1       -0.0584
     11 C           2.8660    0.7968    0.0000 C.3     1  UNL1       -0.0310
     12 C           2.8660   -0.2032    0.0000 C.2     1  UNL1       -0.0662
     13 C           5.9820    2.2032    0.0000 C.3     1  UNL1       -0.0595
     14 C           4.9820    2.1916    0.0000 C.3     1  UNL1       -0.0595
     15 C           3.7320   -1.7032    0.0000 C.2     1  UNL1        0.1279
     16 C           2.0000   -0.7032    0.0000 C.2     1  UNL1       -0.0988
     17 H           4.5915    1.6468    0.0000 H       1  UNL1        0.0312
     18 H           5.0874   -1.2076    0.0000 H       1  UNL1        0.0271
     19 H           5.8856   -1.2169    0.0000 H       1  UNL1        0.0271
     20 H           3.1951   -1.0132    0.0000 H       1  UNL1        0.0425
     21 H           4.1306    1.7717    0.0000 H       1  UNL1        0.0271
     22 H           3.3335    1.7717    0.0000 H       1  UNL1        0.0271
     23 H           7.0089    0.7115    0.0000 H       1  UNL1        0.0271
     24 H           6.6071    1.4013    0.0000 H       1  UNL1        0.0271
     25 H           6.6071   -0.8077    0.0000 H       1  UNL1        0.0266
     26 H           7.0089   -0.1179    0.0000 H       1  UNL1        0.0266
     27 H           3.9781   -1.2032    0.0000 H       1  UNL1        0.0235
     28 H           4.5981   -1.8232    0.0000 H       1  UNL1        0.0235
     29 H           5.2181   -1.2032    0.0000 H       1  UNL1        0.0235
     30 H           2.6540    1.3794    0.0000 H       1  UNL1        0.0310
     31 H           2.2554    0.6891    0.0000 H       1  UNL1        0.0310
     32 H           6.5225    1.8994    0.0000 H       1  UNL1        0.0235
     33 H           6.2857    2.7437    0.0000 H       1  UNL1        0.0235
     34 H           5.4415    2.5070    0.0000 H       1  UNL1        0.0235
     35 H           5.5154    2.5078    0.0000 H       1  UNL1        0.0235
     36 H           4.6658    2.7250    0.0000 H       1  UNL1        0.0235
     37 H           4.4487    1.8754    0.0000 H       1  UNL1        0.0235
     38 H           4.2690   -2.0132    0.0000 H       1  UNL1        0.1033
     39 H           1.4631   -0.3932    0.0000 H       1  UNL1        0.0535
     40 H           2.0000   -1.3232    0.0000 H       1  UNL1        0.0535
@<TRIPOS>BOND
     1     1    15    2
     2     2     3    1
     3     2     5    1
     4     2     6    1
     5     2    10    1
     6     3     4    1
     7     3     7    1
     8     3    17    1
     9     4     8    1
    10     4    13    1
    11     4    14    1
    12     5     9    1
    13     5    18    1
    14     5    19    1
    15     6    12    1
    16     6    15    1
    17     6    20    1
    18     7    11    1
    19     7    21    1
    20     7    22    1
    21     8     9    1
    22     8    23    1
    23     8    24    1
    24     9    25    1
    25     9    26    1
    26    10    27    1
    27    10    28    1
    28    10    29    1
    29    11    12    1
    30    11    30    1
    31    11    31    1
    32    12    16    2
    33    13    32    1
    34    13    33    1
    35    13    34    1
    36    14    35    1
    37    14    36    1
    38    14    37    1
    39    15    38    1
    40    16    39    1
    41    16    40    1
