@<TRIPOS>MOLECULE
IMPHY013414
 72 76 0 0 0
SMALL
GASTEIGER

@<TRIPOS>ATOM
      1 O           6.8671   -1.7737    0.0000 O.3     1  UNL1       -0.3313
      2 O           6.0010   -4.2737    0.0000 O.3     1  UNL1       -0.3461
      3 O           4.2690   -4.2737    0.0000 O.3     1  UNL1       -0.3431
      4 O           7.7331   -4.2737    0.0000 O.3     1  UNL1       -0.3865
      5 O           9.4651   -3.2737    0.0000 O.3     1  UNL1       -0.3864
      6 O           7.7331   -0.2737    0.0000 O.3     1  UNL1       -0.4599
      7 O           9.4651   -1.2737    0.0000 O.3     1  UNL1       -0.3829
      8 O           6.0010   -6.2737    0.0000 O.3     1  UNL1       -0.3841
      9 O           4.2690   -7.2737    0.0000 O.3     1  UNL1       -0.3864
     10 O           2.5369   -6.2737    0.0000 O.3     1  UNL1       -0.3866
     11 O           6.0144    2.7778    0.0000 O.2     1  UNL1       -0.4544
     12 O           4.1934   -0.2464    0.0000 O.3     1  UNL1       -0.5065
     13 O           8.5950    1.2479    0.0000 O.2     1  UNL1       -0.2869
     14 O           8.6528    6.2476    0.0000 O.3     1  UNL1       -0.5033
     15 O           6.9324    7.2675    0.0000 O.3     1  UNL1       -0.5033
     16 C           6.8671   -2.7737    0.0000 C.3     1  UNL1        0.1144
     17 C           7.7331   -3.2737    0.0000 C.3     1  UNL1        0.1120
     18 C           8.5991   -2.7737    0.0000 C.3     1  UNL1        0.1152
     19 C           8.5991   -1.7737    0.0000 C.3     1  UNL1        0.1454
     20 C           5.1350   -5.7737    0.0000 C.3     1  UNL1        0.1341
     21 C           5.1350   -4.7737    0.0000 C.3     1  UNL1        0.1879
     22 C           4.2690   -6.2737    0.0000 C.3     1  UNL1        0.1140
     23 C           3.4030   -5.7737    0.0000 C.3     1  UNL1        0.1095
     24 C           7.7331   -1.2737    0.0000 C.3     1  UNL1        0.2308
     25 C           6.0010   -3.2737    0.0000 C.3     1  UNL1        0.0796
     26 C           3.4030   -4.7737    0.0000 C.3     1  UNL1        0.0873
     27 C           2.5369   -4.2737    0.0000 C.3     1  UNL1       -0.0361
     28 C           6.8671    0.2263    0.0000 C.ar    1  UNL1        0.1418
     29 C           6.8630    1.2679    0.0000 C.ar    1  UNL1        0.1058
     30 C           5.9630   -0.2910    0.0000 C.ar    1  UNL1        0.0226
     31 C           6.0029    1.7779    0.0000 C.ar    1  UNL1        0.1462
     32 C           5.0670    0.2402    0.0000 C.ar    1  UNL1        0.1239
     33 C           7.7348    1.7579    0.0000 C.ar    1  UNL1        0.1966
     34 C           5.0871    1.2816    0.0000 C.ar    1  UNL1        0.0231
     35 C           7.7464    2.7578    0.0000 C.ar    1  UNL1        0.0288
     36 C           6.8862    3.2678    0.0000 C.ar    1  UNL1        0.1393
     37 C           6.8977    4.2677    0.0000 C.ar    1  UNL1        0.0211
     38 C           7.7695    4.7577    0.0000 C.ar    1  UNL1       -0.0059
     39 C           6.0376    4.7777    0.0000 C.ar    1  UNL1       -0.0474
     40 C           7.7810    5.7576    0.0000 C.ar    1  UNL1        0.1589
     41 C           6.0491    5.7776    0.0000 C.ar    1  UNL1       -0.0159
     42 C           6.9209    6.2676    0.0000 C.ar    1  UNL1        0.1583
     43 H           6.3301   -2.4637    0.0000 H       1  UNL1        0.0647
     44 H           8.2700   -3.5837    0.0000 H       1  UNL1        0.0647
     45 H           9.1360   -2.4637    0.0000 H       1  UNL1        0.0648
     46 H           8.5991   -1.1537    0.0000 H       1  UNL1        0.0683
     47 H           5.1350   -6.3937    0.0000 H       1  UNL1        0.0671
     48 H           5.1350   -4.1537    0.0000 H       1  UNL1        0.0937
     49 H           3.7320   -6.5837    0.0000 H       1  UNL1        0.0648
     50 H           3.4030   -6.3937    0.0000 H       1  UNL1        0.0646
     51 H           7.1962   -0.9637    0.0000 H       1  UNL1        0.1084
     52 H           5.7890   -2.6911    0.0000 H       1  UNL1        0.0587
     53 H           5.3905   -3.3814    0.0000 H       1  UNL1        0.0587
     54 H           3.4030   -4.1537    0.0000 H       1  UNL1        0.0621
     55 H           2.8469   -3.7368    0.0000 H       1  UNL1        0.0255
     56 H           2.0000   -3.9637    0.0000 H       1  UNL1        0.0255
     57 H           2.2269   -4.8106    0.0000 H       1  UNL1        0.0255
     58 H           8.2700   -4.5837    0.0000 H       1  UNL1        0.2100
     59 H          10.0021   -2.9637    0.0000 H       1  UNL1        0.2100
     60 H           9.4651   -0.6537    0.0000 H       1  UNL1        0.2102
     61 H           6.5380   -5.9637    0.0000 H       1  UNL1        0.2101
     62 H           3.7320   -7.5837    0.0000 H       1  UNL1        0.2100
     63 H           2.0000   -5.9637    0.0000 H       1  UNL1        0.2100
     64 H           5.9582   -0.9110    0.0000 H       1  UNL1        0.0691
     65 H           4.5574    1.6039    0.0000 H       1  UNL1        0.0691
     66 H           8.2868    3.0616    0.0000 H       1  UNL1        0.0693
     67 H           3.6613    0.0718    0.0000 H       1  UNL1        0.2921
     68 H           8.3028    4.4415    0.0000 H       1  UNL1        0.0662
     69 H           5.4971    4.4739    0.0000 H       1  UNL1        0.0626
     70 H           5.5158    6.0938    0.0000 H       1  UNL1        0.0655
     71 H           8.6600    6.8675    0.0000 H       1  UNL1        0.2923
     72 H           6.3991    7.5837    0.0000 H       1  UNL1        0.2923
@<TRIPOS>BOND
     1     1    16    1
     2     1    24    1
     3    21     2    1
     4     2    25    1
     5     3    21    1
     6     3    26    1
     7    17     4    1
     8     4    58    1
     9    18     5    1
    10     5    59    1
    11    24     6    1
    12     6    28    1
    13     7    19    1
    14     7    60    1
    15    20     8    1
    16     8    61    1
    17     9    22    1
    18     9    62    1
    19    23    10    1
    20    10    63    1
    21    11    31   ar
    22    11    36   ar
    23    12    32    1
    24    12    67    1
    25    13    33    2
    26    14    40    1
    27    14    71    1
    28    15    42    1
    29    15    72    1
    30    16    17    1
    31    16    25    1
    32    16    43    1
    33    17    18    1
    34    17    44    1
    35    18    19    1
    36    18    45    1
    37    19    24    1
    38    19    46    1
    39    20    21    1
    40    20    22    1
    41    20    47    1
    42    21    48    1
    43    22    23    1
    44    22    49    1
    45    23    26    1
    46    23    50    1
    47    24    51    1
    48    25    52    1
    49    25    53    1
    50    26    27    1
    51    26    54    1
    52    27    55    1
    53    27    56    1
    54    27    57    1
    55    28    29   ar
    56    28    30   ar
    57    29    31   ar
    58    29    33   ar
    59    30    32   ar
    60    30    64    1
    61    31    34   ar
    62    32    34   ar
    63    33    35   ar
    64    34    65    1
    65    35    36   ar
    66    35    66    1
    67    36    37    1
    68    37    38   ar
    69    37    39   ar
    70    38    40   ar
    71    38    68    1
    72    39    41   ar
    73    39    69    1
    74    40    42   ar
    75    41    42   ar
    76    41    70    1
