@<TRIPOS>MOLECULE
IMPHY009648
 39 43 0 0 0
SMALL
GASTEIGER

@<TRIPOS>ATOM
      1 O           6.9742    0.0436    0.0000 O.3     1  UNL1       -0.4518
      2 O           6.9742    1.6531    0.0000 O.3     1  UNL1       -0.4489
      3 O           5.1619    2.8484    0.0000 O.3     1  UNL1       -0.4910
      4 N           2.5466    0.3697    0.0000 N.3     1  UNL1       -0.3087
      5 C           3.3859   -0.1585    0.0000 C.3     1  UNL1        0.0379
      6 C           4.2959    0.3484    0.0000 C.ar    1  UNL1       -0.0121
      7 C           3.3779   -1.2001    0.0000 C.3     1  UNL1       -0.0075
      8 C           4.2959    1.3484    0.0000 C.ar    1  UNL1        0.0046
      9 C           5.1619   -0.1516    0.0000 C.ar    1  UNL1        0.0330
     10 C           3.4377    1.8453    0.0000 C.3     1  UNL1       -0.0112
     11 C           2.5722    1.3611    0.0000 C.3     1  UNL1        0.0006
     12 C           4.2799   -1.7209    0.0000 C.ar    1  UNL1       -0.0377
     13 C           5.1780   -1.1932    0.0000 C.ar    1  UNL1       -0.0107
     14 C           6.0279    0.3484    0.0000 C.ar    1  UNL1        0.1779
     15 C           5.1619    1.8484    0.0000 C.ar    1  UNL1        0.1688
     16 C           6.0279    1.3484    0.0000 C.ar    1  UNL1        0.2084
     17 C           4.2716   -2.8059    0.0000 C.ar    1  UNL1       -0.0579
     18 C           6.1299   -1.7138    0.0000 C.ar    1  UNL1       -0.0536
     19 C           7.5578    0.8484    0.0000 C.3     1  UNL1        0.2334
     20 C           5.2112   -3.3484    0.0000 C.ar    1  UNL1       -0.0615
     21 C           6.1466   -2.7986    0.0000 C.ar    1  UNL1       -0.0612
     22 C           6.0279    3.3484    0.0000 C.3     1  UNL1        0.0790
     23 H           2.6402   -0.5665    0.0000 H       1  UNL1        0.0513
     24 H           2.7678   -1.0893    0.0000 H       1  UNL1        0.0332
     25 H           3.1643   -1.7822    0.0000 H       1  UNL1        0.0332
     26 H           3.8387    2.3181    0.0000 H       1  UNL1        0.0327
     27 H           3.0436    2.3240    0.0000 H       1  UNL1        0.0327
     28 H           2.0000    0.0771    0.0000 H       1  UNL1        0.1225
     29 H           2.3704    1.9474    0.0000 H       1  UNL1        0.0427
     30 H           1.9594    1.2668    0.0000 H       1  UNL1        0.0427
     31 H           3.7334   -3.1138    0.0000 H       1  UNL1        0.0620
     32 H           6.6608   -1.3935    0.0000 H       1  UNL1        0.0624
     33 H           8.0186    0.4336    0.0000 H       1  UNL1        0.1166
     34 H           8.0186    1.2631    0.0000 H       1  UNL1        0.1166
     35 H           5.2136   -3.9684    0.0000 H       1  UNL1        0.0618
     36 H           6.6871   -3.1024    0.0000 H       1  UNL1        0.0618
     37 H           6.3379    2.8114    0.0000 H       1  UNL1        0.0660
     38 H           6.5649    3.6584    0.0000 H       1  UNL1        0.0660
     39 H           5.7179    3.8853    0.0000 H       1  UNL1        0.0660
@<TRIPOS>BOND
     1     1    14    1
     2     1    19    1
     3     2    16    1
     4     2    19    1
     5     3    15    1
     6     3    22    1
     7     4     5    1
     8     4    11    1
     9     4    28    1
    10     5     6    1
    11     5     7    1
    12     5    23    1
    13     6     8   ar
    14     6     9   ar
    15     7    12    1
    16     7    24    1
    17     7    25    1
    18     8    10    1
    19     8    15   ar
    20     9    13    1
    21     9    14   ar
    22    10    11    1
    23    10    26    1
    24    10    27    1
    25    11    29    1
    26    11    30    1
    27    12    13   ar
    28    12    17   ar
    29    13    18   ar
    30    14    16   ar
    31    15    16   ar
    32    17    20   ar
    33    17    31    1
    34    18    21   ar
    35    18    32    1
    36    19    33    1
    37    19    34    1
    38    20    21   ar
    39    20    35    1
    40    21    36    1
    41    22    37    1
    42    22    38    1
    43    22    39    1
