@<TRIPOS>MOLECULE
IMPHY016127
 27 29 0 0 0
SMALL
GASTEIGER

@<TRIPOS>ATOM
      1 O           3.6730    1.5251    0.0000 O.3     1  UNL1       -0.3885
      2 C           3.6730    0.5251    0.0000 C.3     1  UNL1        0.0669
      3 C           4.5092   -0.9232    0.0000 C.3     1  UNL1       -0.0379
      4 C           2.9819   -1.3583    0.0000 C.3     1  UNL1       -0.0379
      5 C           2.8368   -0.9232    0.0000 C.3     1  UNL1       -0.0379
      6 C           4.5092    0.0423    0.0000 C.3     1  UNL1       -0.0211
      7 C           2.9819   -0.3130    0.0000 C.3     1  UNL1       -0.0211
      8 C           2.8368    0.0423    0.0000 C.3     1  UNL1       -0.0211
      9 C           3.8876   -1.8351    0.0000 C.3     1  UNL1       -0.0472
     10 C           3.6730   -1.2260    0.0000 C.3     1  UNL1       -0.0472
     11 C           2.0000   -1.4060    0.0000 C.3     1  UNL1       -0.0472
     12 H           5.1016   -1.1059    0.0000 H       1  UNL1        0.0302
     13 H           2.8478   -1.9636    0.0000 H       1  UNL1        0.0302
     14 H           3.3444   -0.5672    0.0000 H       1  UNL1        0.0302
     15 H           5.1198   -0.0653    0.0000 H       1  UNL1        0.0296
     16 H           4.7212    0.6249    0.0000 H       1  UNL1        0.0296
     17 H           2.6383    0.2030    0.0000 H       1  UNL1        0.0296
     18 H           2.3885   -0.4925    0.0000 H       1  UNL1        0.0296
     19 H           2.6247    0.6249    0.0000 H       1  UNL1        0.0296
     20 H           2.2262   -0.0653    0.0000 H       1  UNL1        0.0296
     21 H           3.5782   -2.3724    0.0000 H       1  UNL1        0.0271
     22 H           4.4127   -2.1647    0.0000 H       1  UNL1        0.0271
     23 H           3.3030   -1.7235    0.0000 H       1  UNL1        0.0271
     24 H           4.0430   -1.7235    0.0000 H       1  UNL1        0.0271
     25 H           1.5188   -1.0151    0.0000 H       1  UNL1        0.0271
     26 H           1.8068   -1.9951    0.0000 H       1  UNL1        0.0271
     27 H           4.2099    1.8351    0.0000 H       1  UNL1        0.2102
@<TRIPOS>BOND
     1     1     2    1
     2     1    27    1
     3     2     6    1
     4     2     7    1
     5     2     8    1
     6     3     6    1
     7     3     9    1
     8     3    10    1
     9     3    12    1
    10     4     7    1
    11     4     9    1
    12     4    11    1
    13     4    13    1
    14     5     8    1
    15     5    10    1
    16     5    11    1
    17     5    14    1
    18     6    15    1
    19     6    16    1
    20     7    17    1
    21     7    18    1
    22     8    19    1
    23     8    20    1
    24     9    21    1
    25     9    22    1
    26    10    23    1
    27    10    24    1
    28    11    25    1
    29    11    26    1
