@<TRIPOS>MOLECULE
IMPHY000424
 81 84 0 0 0
SMALL
GASTEIGER

@<TRIPOS>ATOM
      1 O           9.7942   -2.7500    0.0000 O.3     1  UNL1       -0.3389
      2 O           9.7942    0.2500    0.0000 O.3     1  UNL1       -0.3394
      3 O          11.5263   -2.7500    0.0000 O.3     1  UNL1       -0.3431
      4 O           8.0622   -1.7500    0.0000 O.3     1  UNL1       -0.4528
      5 O          11.5263    0.2500    0.0000 O.3     1  UNL1       -0.3458
      6 O          11.5263   -1.7500    0.0000 O.3     1  UNL1       -0.3841
      7 O           9.7942   -4.7500    0.0000 O.3     1  UNL1       -0.3841
      8 O          11.5263   -5.7500    0.0000 O.3     1  UNL1       -0.3864
      9 O          13.2583   -4.7500    0.0000 O.3     1  UNL1       -0.3866
     10 O           8.0622    1.2500    0.0000 O.3     1  UNL1       -0.3923
     11 O          13.2583    1.2500    0.0000 O.3     1  UNL1       -0.3849
     12 O           7.1962   -0.2500    0.0000 O.2     1  UNL1       -0.2456
     13 O          14.1244    4.7500    0.0000 O.3     1  UNL1       -0.5033
     14 O          12.3923    5.7500    0.0000 O.3     1  UNL1       -0.5033
     15 O           2.0000   -1.2500    0.0000 O.3     1  UNL1       -0.5033
     16 O           2.0000   -3.2500    0.0000 O.3     1  UNL1       -0.5033
     17 C           9.7942   -1.7500    0.0000 C.3     1  UNL1        0.1316
     18 C           8.9282   -1.2500    0.0000 C.3     1  UNL1        0.1602
     19 C          10.6603   -1.2500    0.0000 C.3     1  UNL1        0.1355
     20 C           8.9282   -0.2500    0.0000 C.3     1  UNL1        0.1240
     21 C          10.6603   -3.2500    0.0000 C.3     1  UNL1        0.1884
     22 C          10.6603   -4.2500    0.0000 C.3     1  UNL1        0.1341
     23 C          10.6603   -0.2500    0.0000 C.3     1  UNL1        0.1881
     24 C          11.5263   -4.7500    0.0000 C.3     1  UNL1        0.1140
     25 C          12.3923   -4.2500    0.0000 C.3     1  UNL1        0.1095
     26 C          12.3923   -3.2500    0.0000 C.3     1  UNL1        0.0873
     27 C           8.0622    0.2500    0.0000 C.3     1  UNL1        0.0741
     28 C          13.2583   -2.7500    0.0000 C.3     1  UNL1       -0.0361
     29 C          11.5263    1.2500    0.0000 C.3     1  UNL1        0.0808
     30 C           7.1962   -1.2500    0.0000 C.2     1  UNL1        0.3324
     31 C          12.3923    1.7500    0.0000 C.3     1  UNL1        0.1036
     32 C          12.3923    2.7500    0.0000 C.ar    1  UNL1       -0.0133
     33 C           6.3301   -1.7500    0.0000 C.2     1  UNL1        0.0231
     34 C          13.2583    3.2500    0.0000 C.ar    1  UNL1       -0.0108
     35 C          11.5263    3.2500    0.0000 C.ar    1  UNL1       -0.0524
     36 C           5.4641   -1.2500    0.0000 C.2     1  UNL1       -0.0477
     37 C          13.2583    4.2500    0.0000 C.ar    1  UNL1        0.1586
     38 C          11.5263    4.2500    0.0000 C.ar    1  UNL1       -0.0162
     39 C           4.5981   -1.7500    0.0000 C.ar    1  UNL1       -0.0211
     40 C          12.3923    4.7500    0.0000 C.ar    1  UNL1        0.1582
     41 C           3.7320   -1.2500    0.0000 C.ar    1  UNL1       -0.0094
     42 C           4.5981   -2.7500    0.0000 C.ar    1  UNL1       -0.0509
     43 C           2.8660   -1.7500    0.0000 C.ar    1  UNL1        0.1588
     44 C           3.7320   -3.2500    0.0000 C.ar    1  UNL1       -0.0160
     45 C           2.8660   -2.7500    0.0000 C.ar    1  UNL1        0.1582
     46 H          10.3312   -2.0600    0.0000 H       1  UNL1        0.0663
     47 H           8.9282   -1.8700    0.0000 H       1  UNL1        0.0788
     48 H          10.6603   -1.8700    0.0000 H       1  UNL1        0.0671
     49 H           8.9282    0.3700    0.0000 H       1  UNL1        0.0658
     50 H          10.6603   -2.6300    0.0000 H       1  UNL1        0.0938
     51 H          10.6603   -4.8700    0.0000 H       1  UNL1        0.0671
     52 H          11.1972   -0.5600    0.0000 H       1  UNL1        0.0937
     53 H          12.0632   -5.0600    0.0000 H       1  UNL1        0.0648
     54 H          12.9292   -3.9400    0.0000 H       1  UNL1        0.0646
     55 H          12.3923   -2.6300    0.0000 H       1  UNL1        0.0621
     56 H           7.4516    0.3577    0.0000 H       1  UNL1        0.0584
     57 H           7.8501   -0.3326    0.0000 H       1  UNL1        0.0584
     58 H          13.5683   -3.2869    0.0000 H       1  UNL1        0.0255
     59 H          13.7953   -2.4400    0.0000 H       1  UNL1        0.0255
     60 H          12.9483   -2.2131    0.0000 H       1  UNL1        0.0255
     61 H          12.0632   -1.4400    0.0000 H       1  UNL1        0.2101
     62 H           9.7942   -5.3700    0.0000 H       1  UNL1        0.2101
     63 H          12.0632   -6.0600    0.0000 H       1  UNL1        0.2100
     64 H          13.7953   -4.4400    0.0000 H       1  UNL1        0.2100
     65 H          11.3142    1.8326    0.0000 H       1  UNL1        0.0590
     66 H          10.9157    1.1423    0.0000 H       1  UNL1        0.0590
     67 H           7.5252    1.5600    0.0000 H       1  UNL1        0.2095
     68 H          12.9292    2.0600    0.0000 H       1  UNL1        0.0667
     69 H           6.3301   -2.3700    0.0000 H       1  UNL1        0.0689
     70 H          13.7953    1.5600    0.0000 H       1  UNL1        0.2103
     71 H          13.7953    2.9400    0.0000 H       1  UNL1        0.0659
     72 H          10.9893    2.9400    0.0000 H       1  UNL1        0.0622
     73 H           5.4641   -0.6300    0.0000 H       1  UNL1        0.0626
     74 H          10.9893    4.5600    0.0000 H       1  UNL1        0.0655
     75 H           3.7320   -0.6300    0.0000 H       1  UNL1        0.0661
     76 H           5.1350   -3.0600    0.0000 H       1  UNL1        0.0625
     77 H          14.6613    4.4400    0.0000 H       1  UNL1        0.2923
     78 H          11.8554    6.0600    0.0000 H       1  UNL1        0.2923
     79 H           3.7320   -3.8700    0.0000 H       1  UNL1        0.0655
     80 H           2.0000   -0.6300    0.0000 H       1  UNL1        0.2923
     81 H           2.0000   -3.8700    0.0000 H       1  UNL1        0.2923
@<TRIPOS>BOND
     1    17     1    1
     2    21     1    1
     3     2    20    1
     4     2    23    1
     5     3    21    1
     6     3    26    1
     7    18     4    1
     8     4    30    1
     9    23     5    1
    10     5    29    1
    11    19     6    1
    12     6    61    1
    13    22     7    1
    14     7    62    1
    15    24     8    1
    16     8    63    1
    17    25     9    1
    18     9    64    1
    19    10    27    1
    20    10    67    1
    21    11    31    1
    22    11    70    1
    23    12    30    2
    24    13    37    1
    25    13    77    1
    26    14    40    1
    27    14    78    1
    28    15    43    1
    29    15    80    1
    30    16    45    1
    31    16    81    1
    32    17    18    1
    33    17    19    1
    34    17    46    1
    35    18    20    1
    36    18    47    1
    37    19    23    1
    38    19    48    1
    39    20    27    1
    40    20    49    1
    41    21    22    1
    42    21    50    1
    43    22    24    1
    44    22    51    1
    45    23    52    1
    46    24    25    1
    47    24    53    1
    48    25    26    1
    49    25    54    1
    50    26    28    1
    51    26    55    1
    52    27    56    1
    53    27    57    1
    54    28    58    1
    55    28    59    1
    56    28    60    1
    57    29    31    1
    58    29    65    1
    59    29    66    1
    60    30    33    1
    61    31    32    1
    62    31    68    1
    63    32    34   ar
    64    32    35   ar
    65    33    36    2
    66    33    69    1
    67    34    37   ar
    68    34    71    1
    69    35    38   ar
    70    35    72    1
    71    36    39    1
    72    36    73    1
    73    37    40   ar
    74    38    40   ar
    75    38    74    1
    76    39    41   ar
    77    39    42   ar
    78    41    43   ar
    79    41    75    1
    80    42    44   ar
    81    42    76    1
    82    43    45   ar
    83    44    45   ar
    84    44    79    1
