@<TRIPOS>MOLECULE
IMPHY012510
 76 81 0 0 0
SMALL
GASTEIGER

@<TRIPOS>ATOM
      1 N           6.9989   -0.0458    0.0000 N.ar    1  UNL1       -0.3338
      2 N           9.5627    0.8180    0.0000 N.ar    1  UNL1       -0.3560
      3 N           2.7420   -0.1000    0.0000 N.3     1  UNL1       -0.3187
      4 N           8.2921   -3.2429    0.0000 N.3     1  UNL1       -0.3187
      5 C           7.4989    1.4931    0.0000 C.3     1  UNL1        0.0024
      6 C           8.0335    2.3870    0.0000 C.3     1  UNL1       -0.0253
      7 C           6.4989    1.4931    0.0000 C.3     1  UNL1        0.0236
      8 C           7.8079    0.5420    0.0000 C.3     1  UNL1        0.0790
      9 C           6.1899    0.5420    0.0000 C.ar    1  UNL1        0.0309
     10 C           7.5197    3.2931    0.0000 C.3     1  UNL1       -0.0265
     11 C           5.9642    2.3870    0.0000 C.2     1  UNL1       -0.0758
     12 C           8.7590    0.2330    0.0000 C.ar    1  UNL1        0.0437
     13 C           6.4781    3.2931    0.0000 C.2     1  UNL1       -0.0754
     14 C           5.3872   -0.0444    0.0000 C.ar    1  UNL1       -0.0171
     15 C           8.9053    2.8770    0.0000 C.3     1  UNL1       -0.0592
     16 C           8.8937    1.8770    0.0000 C.3     1  UNL1       -0.0592
     17 C           6.6892   -0.9904    0.0000 C.ar    1  UNL1        0.0501
     18 C           5.6952   -0.9895    0.0000 C.ar    1  UNL1        0.0034
     19 C           9.0653   -0.7127    0.0000 C.ar    1  UNL1       -0.0159
     20 C           4.4356    0.2630    0.0000 C.3     1  UNL1       -0.0128
     21 C           5.9747    4.1572    0.0000 C.3     1  UNL1       -0.0438
     22 C           7.2200   -1.8795    0.0000 C.ar    1  UNL1       -0.0376
     23 C          10.0594   -0.7153    0.0000 C.ar    1  UNL1        0.0032
     24 C          10.3684    0.2358    0.0000 C.ar    1  UNL1        0.0470
     25 C           5.1629   -1.8777    0.0000 C.ar    1  UNL1       -0.0523
     26 C           8.4761   -1.5207    0.0000 C.3     1  UNL1       -0.0128
     27 C           3.6936   -0.4074    0.0000 C.3     1  UNL1       -0.0003
     28 C           6.7084   -2.7798    0.0000 C.ar    1  UNL1       -0.0598
     29 C           5.6729   -2.7789    0.0000 C.ar    1  UNL1       -0.0611
     30 C          10.7285   -1.4584    0.0000 C.ar    1  UNL1       -0.0523
     31 C           8.8813   -2.4349    0.0000 C.3     1  UNL1       -0.0003
     32 C          11.3466    0.4437    0.0000 C.ar    1  UNL1       -0.0378
     33 C          11.7067   -1.2505    0.0000 C.ar    1  UNL1       -0.0611
     34 C          12.0157   -0.2994    0.0000 C.ar    1  UNL1       -0.0598
     35 C           2.0000   -0.7705    0.0000 C.3     1  UNL1       -0.0158
     36 C           8.6973   -4.1572    0.0000 C.3     1  UNL1       -0.0158
     37 H           8.1150    1.4235    0.0000 H       1  UNL1        0.0339
     38 H           5.8828    1.4235    0.0000 H       1  UNL1        0.0410
     39 H           7.9049   -0.0703    0.0000 H       1  UNL1        0.0595
     40 H           8.1034    3.5021    0.0000 H       1  UNL1        0.0315
     41 H           7.4136    3.9039    0.0000 H       1  UNL1        0.0315
     42 H           5.3443    2.3798    0.0000 H       1  UNL1        0.0578
     43 H           9.2091    2.3365    0.0000 H       1  UNL1        0.0235
     44 H           9.4458    3.1807    0.0000 H       1  UNL1        0.0235
     45 H           8.6015    3.4175    0.0000 H       1  UNL1        0.0235
     46 H           8.5775    1.3437    0.0000 H       1  UNL1        0.0235
     47 H           9.4270    1.5608    0.0000 H       1  UNL1        0.0235
     48 H           9.2099    2.4104    0.0000 H       1  UNL1        0.0235
     49 H           4.7257    0.8109    0.0000 H       1  UNL1        0.0326
     50 H           3.9463    0.6439    0.0000 H       1  UNL1        0.0326
     51 H           9.5616    1.4380    0.0000 H       1  UNL1        0.1657
     52 H           6.5105    4.4692    0.0000 H       1  UNL1        0.0274
     53 H           5.6627    4.6929    0.0000 H       1  UNL1        0.0274
     54 H           5.4390    3.8451    0.0000 H       1  UNL1        0.0274
     55 H           7.8399   -1.8729    0.0000 H       1  UNL1        0.0638
     56 H           4.5429   -1.8700    0.0000 H       1  UNL1        0.0624
     57 H           8.0462   -1.0740    0.0000 H       1  UNL1        0.0326
     58 H           7.9615   -1.8665    0.0000 H       1  UNL1        0.0326
     59 H           3.4034   -0.9553    0.0000 H       1  UNL1        0.0427
     60 H           4.1828   -0.7883    0.0000 H       1  UNL1        0.0427
     61 H           7.0200   -3.3158    0.0000 H       1  UNL1        0.0618
     62 H           5.3604   -3.3143    0.0000 H       1  UNL1        0.0618
     63 H          10.5369   -2.0481    0.0000 H       1  UNL1        0.0624
     64 H           9.3112   -2.8817    0.0000 H       1  UNL1        0.0427
     65 H           9.3959   -2.0891    0.0000 H       1  UNL1        0.0427
     66 H          11.5381    1.0334    0.0000 H       1  UNL1        0.0638
     67 H           2.6120    0.5062    0.0000 H       1  UNL1        0.1216
     68 H          12.1215   -1.7112    0.0000 H       1  UNL1        0.0618
     69 H          12.6221   -0.1705    0.0000 H       1  UNL1        0.0618
     70 H           7.6756   -3.1771    0.0000 H       1  UNL1        0.1216
     71 H           1.5843   -0.3104    0.0000 H       1  UNL1        0.0388
     72 H           1.5400   -1.1861    0.0000 H       1  UNL1        0.0388
     73 H           2.4157   -1.2305    0.0000 H       1  UNL1        0.0388
     74 H           8.1304   -4.4084    0.0000 H       1  UNL1        0.0388
     75 H           8.9485   -4.7240    0.0000 H       1  UNL1        0.0388
     76 H           9.2641   -3.9060    0.0000 H       1  UNL1        0.0388
@<TRIPOS>BOND
     1     1     8    1
     2     1     9   ar
     3     1    17   ar
     4     2    12   ar
     5     2    24   ar
     6     2    51    1
     7     3    27    1
     8     3    35    1
     9     3    67    1
    10     4    31    1
    11     4    36    1
    12     4    70    1
    13     5     6    1
    14     5     7    1
    15     5     8    1
    16     5    37    1
    17     6    10    1
    18     6    15    1
    19     6    16    1
    20     7     9    1
    21     7    11    1
    22     7    38    1
    23     8    12    1
    24     8    39    1
    25     9    14   ar
    26    10    13    1
    27    10    40    1
    28    10    41    1
    29    11    13    2
    30    11    42    1
    31    12    19   ar
    32    13    21    1
    33    14    18   ar
    34    14    20    1
    35    15    43    1
    36    15    44    1
    37    15    45    1
    38    16    46    1
    39    16    47    1
    40    16    48    1
    41    17    18   ar
    42    17    22   ar
    43    18    25   ar
    44    19    23   ar
    45    19    26    1
    46    20    27    1
    47    20    49    1
    48    20    50    1
    49    21    52    1
    50    21    53    1
    51    21    54    1
    52    22    28   ar
    53    22    55    1
    54    23    24   ar
    55    23    30   ar
    56    24    32   ar
    57    25    29   ar
    58    25    56    1
    59    26    31    1
    60    26    57    1
    61    26    58    1
    62    27    59    1
    63    27    60    1
    64    28    29   ar
    65    28    61    1
    66    29    62    1
    67    30    33   ar
    68    30    63    1
    69    31    64    1
    70    31    65    1
    71    32    34   ar
    72    32    66    1
    73    33    34   ar
    74    33    68    1
    75    34    69    1
    76    35    71    1
    77    35    72    1
    78    35    73    1
    79    36    74    1
    80    36    75    1
    81    36    76    1
