@<TRIPOS>MOLECULE
IMPHY003438
 66 68 0 0 0
SMALL
GASTEIGER

@<TRIPOS>ATOM
      1 O           8.2682   -0.3471    0.0000 O.3     1  UNL1       -0.3362
      2 O           9.2682   -1.3471    0.0000 O.3     1  UNL1       -0.3125
      3 O           7.5361   -1.3471    0.0000 O.3     1  UNL1       -0.3404
      4 O           6.8002    1.8912    0.0000 O.3     1  UNL1       -0.3460
      5 O          10.5283    0.9130    0.0000 O.3     1  UNL1       -0.3837
      6 O           8.7682    2.1918    0.0000 O.3     1  UNL1       -0.3864
      7 O           5.1060    1.5310    0.0000 O.3     1  UNL1       -0.3405
      8 O           9.2682   -3.3471    0.0000 O.3     1  UNL1       -0.3841
      9 O          10.9624    0.0130    0.0000 O.3     1  UNL1       -0.3896
     10 O           7.5361   -4.3471    0.0000 O.3     1  UNL1       -0.3864
     11 O           5.8041   -3.3471    0.0000 O.3     1  UNL1       -0.3865
     12 O           6.3844    3.8474    0.0000 O.3     1  UNL1       -0.3841
     13 O           4.4823    4.4655    0.0000 O.3     1  UNL1       -0.3864
     14 O           2.9960    3.1272    0.0000 O.3     1  UNL1       -0.3865
     15 O           4.9381   -1.8471    0.0000 O.3     1  UNL1       -0.3924
     16 O           2.4608    1.4799    0.0000 O.3     1  UNL1       -0.3924
     17 C           9.2682   -0.3471    0.0000 C.3     1  UNL1        0.2252
     18 C           9.5772    0.6040    0.0000 C.3     1  UNL1        0.1395
     19 C           7.9592    0.6040    0.0000 C.3     1  UNL1        0.1138
     20 C           8.7682    1.1918    0.0000 C.3     1  UNL1        0.1145
     21 C           8.4022   -1.8471    0.0000 C.3     1  UNL1        0.1912
     22 C           7.0081    0.9130    0.0000 C.3     1  UNL1        0.0796
     23 C           8.4022   -2.8471    0.0000 C.3     1  UNL1        0.1342
     24 C          10.2193   -0.6561    0.0000 C.3     1  UNL1        0.1009
     25 C           7.5361   -3.3471    0.0000 C.3     1  UNL1        0.1141
     26 C           6.6701   -2.8471    0.0000 C.3     1  UNL1        0.1119
     27 C           6.6701   -1.8471    0.0000 C.3     1  UNL1        0.1130
     28 C           5.8492    2.2002    0.0000 C.3     1  UNL1        0.1880
     29 C           5.6412    3.1783    0.0000 C.3     1  UNL1        0.1341
     30 C           4.6902    3.4873    0.0000 C.3     1  UNL1        0.1141
     31 C           3.9470    2.8182    0.0000 C.3     1  UNL1        0.1119
     32 C           4.1550    1.8400    0.0000 C.3     1  UNL1        0.1130
     33 C           5.8041   -1.3471    0.0000 C.3     1  UNL1        0.0730
     34 C           3.4118    1.1709    0.0000 C.3     1  UNL1        0.0730
     35 H          10.0156    0.1656    0.0000 H       1  UNL1        0.0675
     36 H           7.5208    0.1656    0.0000 H       1  UNL1        0.0647
     37 H           9.3206    1.4732    0.0000 H       1  UNL1        0.0648
     38 H           8.9391   -2.1571    0.0000 H       1  UNL1        0.0939
     39 H           6.3885    0.8914    0.0000 H       1  UNL1        0.0587
     40 H           6.9218    0.2990    0.0000 H       1  UNL1        0.0587
     41 H           8.4022   -3.4671    0.0000 H       1  UNL1        0.0671
     42 H           9.9282   -1.2035    0.0000 H       1  UNL1        0.0612
     43 H          10.7078   -1.0378    0.0000 H       1  UNL1        0.0612
     44 H           6.9992   -3.6571    0.0000 H       1  UNL1        0.0648
     45 H           6.1332   -2.5371    0.0000 H       1  UNL1        0.0647
     46 H           6.6701   -1.2271    0.0000 H       1  UNL1        0.0647
     47 H           6.3099    2.6150    0.0000 H       1  UNL1        0.0937
     48 H           5.5123    3.7848    0.0000 H       1  UNL1        0.0671
     49 H           4.1005    3.6789    0.0000 H       1  UNL1        0.0648
     50 H           3.4863    2.4033    0.0000 H       1  UNL1        0.0647
     51 H           4.2839    1.2336    0.0000 H       1  UNL1        0.0647
     52 H          10.6572    1.5194    0.0000 H       1  UNL1        0.2101
     53 H           9.3051    2.5018    0.0000 H       1  UNL1        0.2100
     54 H           6.2026   -0.8721    0.0000 H       1  UNL1        0.0584
     55 H           5.4056   -0.8721    0.0000 H       1  UNL1        0.0584
     56 H           3.1207    0.6235    0.0000 H       1  UNL1        0.0584
     57 H           3.9004    0.7892    0.0000 H       1  UNL1        0.0584
     58 H           9.2682   -3.9671    0.0000 H       1  UNL1        0.2101
     59 H          11.5521   -0.1785    0.0000 H       1  UNL1        0.2096
     60 H           6.9992   -4.6571    0.0000 H       1  UNL1        0.2100
     61 H           5.8041   -3.9671    0.0000 H       1  UNL1        0.2100
     62 H           6.2555    4.4539    0.0000 H       1  UNL1        0.2101
     63 H           3.8926    4.6571    0.0000 H       1  UNL1        0.2100
     64 H           2.8671    3.7337    0.0000 H       1  UNL1        0.2100
     65 H           4.4011   -1.5371    0.0000 H       1  UNL1        0.2095
     66 H           2.0000    1.0651    0.0000 H       1  UNL1        0.2095
@<TRIPOS>BOND
     1     1    17    1
     2     1    19    1
     3    17     2    1
     4    21     2    1
     5     3    21    1
     6     3    27    1
     7     4    22    1
     8    28     4    1
     9    18     5    1
    10     5    52    1
    11    20     6    1
    12     6    53    1
    13     7    28    1
    14     7    32    1
    15    23     8    1
    16     8    58    1
    17     9    24    1
    18     9    59    1
    19    25    10    1
    20    10    60    1
    21    26    11    1
    22    11    61    1
    23    29    12    1
    24    12    62    1
    25    30    13    1
    26    13    63    1
    27    31    14    1
    28    14    64    1
    29    15    33    1
    30    15    65    1
    31    16    34    1
    32    16    66    1
    33    17    18    1
    34    17    24    1
    35    18    20    1
    36    18    35    1
    37    19    20    1
    38    19    22    1
    39    19    36    1
    40    20    37    1
    41    21    23    1
    42    21    38    1
    43    22    39    1
    44    22    40    1
    45    23    25    1
    46    23    41    1
    47    24    42    1
    48    24    43    1
    49    25    26    1
    50    25    44    1
    51    26    27    1
    52    26    45    1
    53    27    33    1
    54    27    46    1
    55    28    29    1
    56    28    47    1
    57    29    30    1
    58    29    48    1
    59    30    31    1
    60    30    49    1
    61    31    32    1
    62    31    50    1
    63    32    34    1
    64    32    51    1
    65    33    54    1
    66    33    55    1
    67    34    56    1
    68    34    57    1
