@<TRIPOS>MOLECULE
IMPHY016248
 26 26 0 0 0
SMALL
GASTEIGER

@<TRIPOS>ATOM
      1 O           2.8660    1.0000    0.0000 O.3     1  UNL1       -0.4784
      2 N           4.5981   -1.0000    0.0000 N.ar    1  UNL1       -0.2497
      3 N           4.5981    1.0000    0.0000 N.ar    1  UNL1       -0.2180
      4 C           2.8660   -1.0000    0.0000 C.3     1  UNL1        0.0009
      5 C           3.7320   -0.5000    0.0000 C.ar    1  UNL1        0.1054
      6 C           2.8660   -2.0000    0.0000 C.3     1  UNL1       -0.0571
      7 C           2.0000   -0.5000    0.0000 C.3     1  UNL1       -0.0571
      8 C           3.7320    0.5000    0.0000 C.ar    1  UNL1        0.2367
      9 C           5.4641   -0.5000    0.0000 C.ar    1  UNL1        0.0568
     10 C           5.4641    0.5000    0.0000 C.ar    1  UNL1        0.0524
     11 C           6.3301   -1.0000    0.0000 C.3     1  UNL1       -0.0209
     12 C           2.8660    2.0000    0.0000 C.3     1  UNL1        0.0805
     13 H           2.8660   -0.3800    0.0000 H       1  UNL1        0.0360
     14 H           2.2460   -2.0000    0.0000 H       1  UNL1        0.0236
     15 H           2.8660   -2.6200    0.0000 H       1  UNL1        0.0236
     16 H           3.4860   -2.0000    0.0000 H       1  UNL1        0.0236
     17 H           2.3100    0.0369    0.0000 H       1  UNL1        0.0236
     18 H           1.4631   -0.1900    0.0000 H       1  UNL1        0.0236
     19 H           1.6900   -1.0369    0.0000 H       1  UNL1        0.0236
     20 H           6.0010    0.8100    0.0000 H       1  UNL1        0.0849
     21 H           6.0201   -1.5369    0.0000 H       1  UNL1        0.0293
     22 H           6.8671   -1.3100    0.0000 H       1  UNL1        0.0293
     23 H           6.6401   -0.4631    0.0000 H       1  UNL1        0.0293
     24 H           3.4860    2.0000    0.0000 H       1  UNL1        0.0660
     25 H           2.8660    2.6200    0.0000 H       1  UNL1        0.0660
     26 H           2.2460    2.0000    0.0000 H       1  UNL1        0.0660
@<TRIPOS>BOND
     1     1     8    1
     2     1    12    1
     3     2     5   ar
     4     2     9   ar
     5     3     8   ar
     6     3    10   ar
     7     4     5    1
     8     4     6    1
     9     4     7    1
    10     4    13    1
    11     5     8   ar
    12     6    14    1
    13     6    15    1
    14     6    16    1
    15     7    17    1
    16     7    18    1
    17     7    19    1
    18     9    10   ar
    19     9    11    1
    20    10    20    1
    21    11    21    1
    22    11    22    1
    23    11    23    1
    24    12    24    1
    25    12    25    1
    26    12    26    1
