@<TRIPOS>MOLECULE
IMPHY009488
 73 77 0 0 0
SMALL
GASTEIGER

@<TRIPOS>ATOM
      1 F           2.0000   -1.7388    0.0000 F       1  UNL1       -0.2055
      2 O          11.2788   -1.7668    0.0000 O.2     1  UNL1       -0.2732
      3 O           6.5000   -2.6048    0.0000 O.2     1  UNL1       -0.2921
      4 N          11.5878    0.8023    0.0000 N.pl3   1  UNL1       -0.2995
      5 N           9.0000   -0.0067    0.0000 N.3     1  UNL1       -0.3021
      6 N          12.5388   -0.5067    0.0000 N.am    1  UNL1       -0.2835
      7 N          17.4975   -3.0389    0.0000 N.pl3   1  UNL1       -0.3580
      8 C          11.0000   -0.0067    0.0000 C.3     1  UNL1        0.1148
      9 C          10.5000    0.8593    0.0000 C.3     1  UNL1       -0.0100
     10 C          10.5000   -0.8727    0.0000 C.3     1  UNL1       -0.0100
     11 C           9.5000    0.8593    0.0000 C.3     1  UNL1        0.0013
     12 C           9.5000   -0.8727    0.0000 C.3     1  UNL1        0.0013
     13 C          11.5878   -0.8157    0.0000 C.2     1  UNL1        0.2405
     14 C          12.5388    0.4933    0.0000 C.3     1  UNL1        0.0821
     15 C           8.0000   -0.0067    0.0000 C.3     1  UNL1       -0.0007
     16 C          11.2788    1.7534    0.0000 C.ar    1  UNL1        0.0317
     17 C          13.3479   -1.0945    0.0000 C.3     1  UNL1        0.0202
     18 C           7.5000   -0.8727    0.0000 C.3     1  UNL1       -0.0332
     19 C          14.2614   -0.6877    0.0000 C.3     1  UNL1       -0.0118
     20 C          11.9479    2.4965    0.0000 C.ar    1  UNL1       -0.0406
     21 C          10.3006    1.9613    0.0000 C.ar    1  UNL1       -0.0406
     22 C           6.5000   -0.8727    0.0000 C.3     1  UNL1        0.0116
     23 C          15.0704   -1.2755    0.0000 C.ar    1  UNL1       -0.0458
     24 C          11.6389    3.4476    0.0000 C.ar    1  UNL1       -0.0600
     25 C           9.9916    2.9123    0.0000 C.ar    1  UNL1       -0.0600
     26 C          10.6607    3.6555    0.0000 C.ar    1  UNL1       -0.0616
     27 C           6.0000   -1.7388    0.0000 C.2     1  UNL1        0.1632
     28 C          14.9659   -2.2700    0.0000 C.ar    1  UNL1       -0.0568
     29 C          15.9840   -0.8688    0.0000 C.ar    1  UNL1       -0.0568
     30 C           5.0000   -1.7388    0.0000 C.ar    1  UNL1        0.0176
     31 C          15.7749   -2.8578    0.0000 C.ar    1  UNL1       -0.0408
     32 C          16.7930   -1.4566    0.0000 C.ar    1  UNL1       -0.0408
     33 C          16.6885   -2.4511    0.0000 C.ar    1  UNL1        0.0246
     34 C           4.5000   -0.8727    0.0000 C.ar    1  UNL1       -0.0486
     35 C           4.5000   -2.6048    0.0000 C.ar    1  UNL1       -0.0486
     36 C           3.5000   -0.8727    0.0000 C.ar    1  UNL1       -0.0258
     37 C           3.5000   -2.6048    0.0000 C.ar    1  UNL1       -0.0258
     38 C           3.0000   -1.7388    0.0000 C.ar    1  UNL1        0.1234
     39 H          11.0826    1.0714    0.0000 H       1  UNL1        0.0303
     40 H          10.3923    1.4699    0.0000 H       1  UNL1        0.0303
     41 H          10.3923   -1.4833    0.0000 H       1  UNL1        0.0303
     42 H          11.0826   -1.0848    0.0000 H       1  UNL1        0.0303
     43 H           8.9174   -1.0848    0.0000 H       1  UNL1        0.0427
     44 H           9.6077   -1.4833    0.0000 H       1  UNL1        0.0427
     45 H           9.6077    1.4699    0.0000 H       1  UNL1        0.0427
     46 H           8.9174    1.0714    0.0000 H       1  UNL1        0.0427
     47 H          13.1554    0.4285    0.0000 H       1  UNL1        0.0673
     48 H          12.6677    1.0998    0.0000 H       1  UNL1        0.0673
     49 H           8.1077    0.6039    0.0000 H       1  UNL1        0.0427
     50 H           7.4174    0.2054    0.0000 H       1  UNL1        0.0427
     51 H          12.9019   -1.5252    0.0000 H       1  UNL1        0.0468
     52 H          13.6946   -1.6085    0.0000 H       1  UNL1        0.0468
     53 H           7.3923   -1.4833    0.0000 H       1  UNL1        0.0282
     54 H           8.0826   -1.0848    0.0000 H       1  UNL1        0.0282
     55 H          14.7074   -0.2571    0.0000 H       1  UNL1        0.0328
     56 H          13.9147   -0.1737    0.0000 H       1  UNL1        0.0328
     57 H          12.5544    2.3676    0.0000 H       1  UNL1        0.0636
     58 H           9.8858    1.5005    0.0000 H       1  UNL1        0.0636
     59 H           6.6077   -0.2621    0.0000 H       1  UNL1        0.0345
     60 H           5.9174   -0.6607    0.0000 H       1  UNL1        0.0345
     61 H          12.0537    3.9083    0.0000 H       1  UNL1        0.0618
     62 H           9.3852    3.0412    0.0000 H       1  UNL1        0.0618
     63 H          10.4691    4.2451    0.0000 H       1  UNL1        0.0618
     64 H          14.3995   -2.5222    0.0000 H       1  UNL1        0.0621
     65 H          16.0488   -0.2522    0.0000 H       1  UNL1        0.0621
     66 H          15.7101   -3.4744    0.0000 H       1  UNL1        0.0636
     67 H          17.3594   -1.2044    0.0000 H       1  UNL1        0.0636
     68 H           4.8100   -0.3358    0.0000 H       1  UNL1        0.0625
     69 H           4.8100   -3.1417    0.0000 H       1  UNL1        0.0625
     70 H          18.0639   -2.7867    0.0000 H       1  UNL1        0.1423
     71 H          17.4327   -3.6555    0.0000 H       1  UNL1        0.1423
     72 H           3.1900   -0.3358    0.0000 H       1  UNL1        0.0646
     73 H           3.1900   -3.1417    0.0000 H       1  UNL1        0.0646
@<TRIPOS>BOND
     1     1    38    1
     2     2    13    2
     3     3    27    2
     4     4     8    1
     5     4    14    1
     6     4    16    1
     7     5    11    1
     8     5    12    1
     9     5    15    1
    10     6    13   am
    11     6    14    1
    12     6    17    1
    13     7    33    1
    14     7    70    1
    15     7    71    1
    16     8     9    1
    17     8    10    1
    18     8    13    1
    19     9    11    1
    20     9    39    1
    21     9    40    1
    22    10    12    1
    23    10    41    1
    24    10    42    1
    25    11    45    1
    26    11    46    1
    27    12    43    1
    28    12    44    1
    29    14    47    1
    30    14    48    1
    31    15    18    1
    32    15    49    1
    33    15    50    1
    34    16    20   ar
    35    16    21   ar
    36    17    19    1
    37    17    51    1
    38    17    52    1
    39    18    22    1
    40    18    53    1
    41    18    54    1
    42    19    23    1
    43    19    55    1
    44    19    56    1
    45    20    24   ar
    46    20    57    1
    47    21    25   ar
    48    21    58    1
    49    22    27    1
    50    22    59    1
    51    22    60    1
    52    23    28   ar
    53    23    29   ar
    54    24    26   ar
    55    24    61    1
    56    25    26   ar
    57    25    62    1
    58    26    63    1
    59    27    30    1
    60    28    31   ar
    61    28    64    1
    62    29    32   ar
    63    29    65    1
    64    30    34   ar
    65    30    35   ar
    66    31    33   ar
    67    31    66    1
    68    32    33   ar
    69    32    67    1
    70    34    36   ar
    71    34    68    1
    72    35    37   ar
    73    35    69    1
    74    36    38   ar
    75    36    72    1
    76    37    38   ar
    77    37    73    1
