@<TRIPOS>MOLECULE
IMPHY000875
 21 21 0 0 0
SMALL
GASTEIGER

@<TRIPOS>ATOM
      1 O           2.8660   -1.2500    0.0000 O.3     1  UNL1       -0.4948
      2 O           5.4641    2.2500    0.0000 O.2     1  UNL1       -0.2957
      3 C           4.5981   -1.2500    0.0000 C.ar    1  UNL1       -0.0088
      4 C           3.7320   -0.7500    0.0000 C.ar    1  UNL1        0.1236
      5 C           5.4641   -0.7500    0.0000 C.ar    1  UNL1       -0.0547
      6 C           3.7320    0.2500    0.0000 C.ar    1  UNL1       -0.0095
      7 C           4.5981    0.7500    0.0000 C.ar    1  UNL1        0.0176
      8 C           5.4641    0.2500    0.0000 C.ar    1  UNL1       -0.0511
      9 C           4.5981   -2.2500    0.0000 C.3     1  UNL1       -0.0362
     10 C           4.5981    1.7500    0.0000 C.2     1  UNL1        0.1503
     11 C           2.0000   -0.7500    0.0000 C.3     1  UNL1        0.0788
     12 H           6.0010   -1.0600    0.0000 H       1  UNL1        0.0622
     13 H           3.1951    0.5600    0.0000 H       1  UNL1        0.0661
     14 H           6.0010    0.5600    0.0000 H       1  UNL1        0.0625
     15 H           3.9781   -2.2500    0.0000 H       1  UNL1        0.0279
     16 H           4.5981   -2.8700    0.0000 H       1  UNL1        0.0279
     17 H           5.2181   -2.2500    0.0000 H       1  UNL1        0.0279
     18 H           4.0611    2.0600    0.0000 H       1  UNL1        0.1081
     19 H           2.3100   -0.2131    0.0000 H       1  UNL1        0.0660
     20 H           1.4631   -0.4400    0.0000 H       1  UNL1        0.0660
     21 H           1.6900   -1.2869    0.0000 H       1  UNL1        0.0660
@<TRIPOS>BOND
     1     1     4    1
     2     1    11    1
     3     2    10    2
     4     3     4   ar
     5     3     5   ar
     6     3     9    1
     7     4     6   ar
     8     5     8   ar
     9     5    12    1
    10     6     7   ar
    11     6    13    1
    12     7     8   ar
    13     7    10    1
    14     8    14    1
    15     9    15    1
    16     9    16    1
    17     9    17    1
    18    10    18    1
    19    11    19    1
    20    11    20    1
    21    11    21    1
