@<TRIPOS>MOLECULE
IMPHY006426
 27 26 0 0 0
SMALL
GASTEIGER

@<TRIPOS>ATOM
      1 O           7.1962    0.0000    0.0000 O.3     1  UNL1       -0.3907
      2 C           3.7320    0.0000    0.0000 C.3     1  UNL1        0.0158
      3 C           4.5981    0.5000    0.0000 C.2     1  UNL1       -0.0721
      4 C           2.8660    0.5000    0.0000 C.2     1  UNL1       -0.0691
      5 C           5.4641    0.0000    0.0000 C.2     1  UNL1       -0.0506
      6 C           3.7320   -1.0000    0.0000 C.2     1  UNL1       -0.0803
      7 C           6.3301    0.5000    0.0000 C.3     1  UNL1        0.0651
      8 C           2.0000    0.0000    0.0000 C.3     1  UNL1       -0.0432
      9 C           5.4641   -1.0000    0.0000 C.3     1  UNL1       -0.0416
     10 C           2.8660    1.5000    0.0000 C.2     1  UNL1       -0.0989
     11 C           2.8660   -1.5000    0.0000 C.2     1  UNL1       -0.1018
     12 H           4.4682   -0.4250    0.0000 H       1  UNL1        0.0431
     13 H           4.5981    1.1200    0.0000 H       1  UNL1        0.0581
     14 H           4.2690   -1.3100    0.0000 H       1  UNL1        0.0575
     15 H           6.7287    0.9749    0.0000 H       1  UNL1        0.0604
     16 H           5.9316    0.9749    0.0000 H       1  UNL1        0.0604
     17 H           1.6900    0.5369    0.0000 H       1  UNL1        0.0275
     18 H           1.4631   -0.3100    0.0000 H       1  UNL1        0.0275
     19 H           2.3100   -0.5369    0.0000 H       1  UNL1        0.0275
     20 H           4.8441   -1.0000    0.0000 H       1  UNL1        0.0275
     21 H           5.4641   -1.6200    0.0000 H       1  UNL1        0.0275
     22 H           6.0841   -1.0000    0.0000 H       1  UNL1        0.0275
     23 H           3.4030    1.8100    0.0000 H       1  UNL1        0.0535
     24 H           2.3291    1.8100    0.0000 H       1  UNL1        0.0535
     25 H           2.3291   -1.1900    0.0000 H       1  UNL1        0.0532
     26 H           2.8660   -2.1200    0.0000 H       1  UNL1        0.0532
     27 H           7.7331    0.3100    0.0000 H       1  UNL1        0.2098
@<TRIPOS>BOND
     1     1     7    1
     2     1    27    1
     3     2     3    1
     4     2     4    1
     5     2     6    1
     6     2    12    1
     7     3     5    2
     8     3    13    1
     9     4     8    1
    10     4    10    2
    11     5     7    1
    12     5     9    1
    13     6    11    2
    14     6    14    1
    15     7    15    1
    16     7    16    1
    17     8    17    1
    18     8    18    1
    19     8    19    1
    20     9    20    1
    21     9    21    1
    22     9    22    1
    23    10    23    1
    24    10    24    1
    25    11    25    1
    26    11    26    1
