@<TRIPOS>MOLECULE
IMPHY013182
 45 48 0 0 0
SMALL
GASTEIGER

@<TRIPOS>ATOM
      1 O           6.1940   -2.3139    0.0000 O.2     1  UNL1       -0.4537
      2 O           8.3380   -0.2454    0.0000 O.2     1  UNL1       -0.4177
      3 O           2.7044   -1.4096    0.0000 O.3     1  UNL1       -0.5064
      4 O          10.3295   -0.6465    0.0000 O.3     1  UNL1       -0.4885
      5 O           7.0508    0.9136    0.0000 O.2     1  UNL1       -0.2444
      6 O          10.9775   -2.5896    0.0000 O.3     1  UNL1       -0.5032
      7 C           5.6966   -0.7832    0.0000 C.ar    1  UNL1        0.0353
      8 C           6.6907   -0.7806    0.0000 C.ar    1  UNL1        0.1128
      9 C           6.9997   -1.7317    0.0000 C.ar    1  UNL1        0.1539
     10 C           5.3902   -1.7289    0.0000 C.ar    1  UNL1        0.1400
     11 C           7.9778   -1.9396    0.0000 C.ar    1  UNL1        0.0643
     12 C           4.0007   -0.2121    0.0000 C.ar    1  UNL1       -0.0014
     13 C           5.0150   -0.0037    0.0000 C.ar    1  UNL1       -0.0432
     14 C           8.6470   -1.1965    0.0000 C.ar    1  UNL1        0.1876
     15 C           4.3810   -1.9606    0.0000 C.ar    1  UNL1        0.0230
     16 C           3.6816   -1.1971    0.0000 C.ar    1  UNL1        0.1238
     17 C           7.3598   -0.0375    0.0000 C.ar    1  UNL1        0.3489
     18 C           3.3338    0.5331    0.0000 C.3     1  UNL1       -0.0058
     19 C           8.2844   -2.9351    0.0000 C.ar    1  UNL1       -0.0438
     20 C           9.6690   -1.3973    0.0000 C.ar    1  UNL1        0.2047
     21 C           9.9986   -2.3854    0.0000 C.ar    1  UNL1        0.1622
     22 C           9.3016   -3.1595    0.0000 C.ar    1  UNL1       -0.0156
     23 C           3.6457    1.4832    0.0000 C.2     1  UNL1       -0.0809
     24 C           2.9788    2.2284    0.0000 C.2     1  UNL1       -0.0793
     25 C           3.2906    3.1785    0.0000 C.3     1  UNL1       -0.0440
     26 C           2.0000    2.0234    0.0000 C.3     1  UNL1       -0.0440
     27 C          11.3100   -0.8430    0.0000 C.3     1  UNL1        0.0791
     28 H           5.2129    0.5839    0.0000 H       1  UNL1        0.0629
     29 H           4.1968   -2.5526    0.0000 H       1  UNL1        0.0691
     30 H           2.7873    0.8258    0.0000 H       1  UNL1        0.0357
     31 H           2.9506    0.0457    0.0000 H       1  UNL1        0.0357
     32 H           7.8642   -3.3910    0.0000 H       1  UNL1        0.0627
     33 H           9.4909   -3.7499    0.0000 H       1  UNL1        0.0655
     34 H           4.2525    1.6103    0.0000 H       1  UNL1        0.0575
     35 H           2.5156   -2.0002    0.0000 H       1  UNL1        0.2921
     36 H           3.8797    2.9851    0.0000 H       1  UNL1        0.0274
     37 H           3.4840    3.7676    0.0000 H       1  UNL1        0.0274
     38 H           2.7015    3.3718    0.0000 H       1  UNL1        0.0274
     39 H           1.8729    2.6302    0.0000 H       1  UNL1        0.0274
     40 H           1.3932    1.8963    0.0000 H       1  UNL1        0.0274
     41 H           2.1271    1.4165    0.0000 H       1  UNL1        0.0274
     42 H          11.1714   -3.1785    0.0000 H       1  UNL1        0.2923
     43 H          11.1881   -1.4510    0.0000 H       1  UNL1        0.0660
     44 H          11.9179   -0.9649    0.0000 H       1  UNL1        0.0660
     45 H          11.4319   -0.2351    0.0000 H       1  UNL1        0.0660
@<TRIPOS>BOND
     1     1     9   ar
     2     1    10   ar
     3     2    14   ar
     4     2    17   ar
     5     3    16    1
     6     3    35    1
     7     4    20    1
     8     4    27    1
     9     5    17    2
    10     6    21    1
    11     6    42    1
    12     7     8   ar
    13     7    10   ar
    14     7    13   ar
    15     8     9   ar
    16     8    17   ar
    17     9    11   ar
    18    10    15   ar
    19    11    14   ar
    20    11    19   ar
    21    12    13   ar
    22    12    16   ar
    23    12    18    1
    24    13    28    1
    25    14    20   ar
    26    15    16   ar
    27    15    29    1
    28    18    23    1
    29    18    30    1
    30    18    31    1
    31    19    22   ar
    32    19    32    1
    33    20    21   ar
    34    21    22   ar
    35    22    33    1
    36    23    24    2
    37    23    34    1
    38    24    25    1
    39    24    26    1
    40    25    36    1
    41    25    37    1
    42    25    38    1
    43    26    39    1
    44    26    40    1
    45    26    41    1
    46    27    43    1
    47    27    44    1
    48    27    45    1
