@<TRIPOS>MOLECULE
IMPHY012419
 49 53 0 0 0
SMALL
GASTEIGER

@<TRIPOS>ATOM
      1 O           6.2697   -2.2403    0.0000 O.3     1  UNL1       -0.3928
      2 O           8.9752   -1.7725    0.0000 O.3     1  UNL1       -0.4911
      3 O           2.6079    0.9874    0.0000 O.3     1  UNL1       -0.4526
      4 O           2.6079    2.6639    0.0000 O.3     1  UNL1       -0.4526
      5 O          10.7866   -0.7267    0.0000 O.3     1  UNL1       -0.4914
      6 N           6.2435   -0.2159    0.0000 N.pl3   1  UNL1       -0.3226
      7 C           7.1415   -0.7436    0.0000 C.3     1  UNL1        0.0756
      8 C           6.2596    0.8256    0.0000 C.ar    1  UNL1        0.0457
      9 C           8.0436   -0.2228    0.0000 C.ar    1  UNL1        0.0281
     10 C           7.1256    1.3256    0.0000 C.ar    1  UNL1        0.0042
     11 C           8.0356    0.8188    0.0000 C.ar    1  UNL1       -0.0074
     12 C           5.3935    1.3256    0.0000 C.ar    1  UNL1        0.0074
     13 C           7.1377   -1.7436    0.0000 C.3     1  UNL1        0.0669
     14 C           8.9790   -0.7725    0.0000 C.ar    1  UNL1        0.1671
     15 C           5.3935    2.3256    0.0000 C.ar    1  UNL1       -0.0124
     16 C           5.3717   -0.7058    0.0000 C.3     1  UNL1        0.0014
     17 C           7.1256    2.3256    0.0000 C.ar    1  UNL1       -0.0517
     18 C           8.9624    1.3829    0.0000 C.ar    1  UNL1       -0.0500
     19 C           6.2596    2.8256    0.0000 C.ar    1  UNL1       -0.0532
     20 C           4.4996    0.7910    0.0000 C.ar    1  UNL1       -0.0066
     21 C           9.9187   -0.2300    0.0000 C.ar    1  UNL1        0.1619
     22 C           4.4996    2.8603    0.0000 C.ar    1  UNL1       -0.0084
     23 C           9.9103    0.8549    0.0000 C.ar    1  UNL1       -0.0157
     24 C           3.5935    1.3048    0.0000 C.ar    1  UNL1        0.1669
     25 C           3.5935    2.3464    0.0000 C.ar    1  UNL1        0.1668
     26 C           2.0000    1.8256    0.0000 C.3     1  UNL1        0.2332
     27 C           9.8393   -2.2759    0.0000 C.3     1  UNL1        0.0790
     28 C          11.6507   -0.2234    0.0000 C.3     1  UNL1        0.0790
     29 H           6.6028   -1.0505    0.0000 H       1  UNL1        0.0574
     30 H           7.3475   -2.3270    0.0000 H       1  UNL1        0.0579
     31 H           7.7487   -1.6383    0.0000 H       1  UNL1        0.0579
     32 H           5.0680   -0.1654    0.0000 H       1  UNL1        0.0428
     33 H           4.8313   -1.0096    0.0000 H       1  UNL1        0.0428
     34 H           5.6755   -1.2463    0.0000 H       1  UNL1        0.0428
     35 H           7.6625    2.6356    0.0000 H       1  UNL1        0.0624
     36 H           8.9505    2.0027    0.0000 H       1  UNL1        0.0625
     37 H           6.2596    3.4456    0.0000 H       1  UNL1        0.0624
     38 H           4.5068    0.1710    0.0000 H       1  UNL1        0.0662
     39 H           4.5068    3.4802    0.0000 H       1  UNL1        0.0661
     40 H          10.4436    1.1711    0.0000 H       1  UNL1        0.0655
     41 H           6.2673   -2.8603    0.0000 H       1  UNL1        0.2095
     42 H           1.5391    2.2404    0.0000 H       1  UNL1        0.1166
     43 H           1.5391    1.4109    0.0000 H       1  UNL1        0.1166
     44 H           9.5272   -2.8116    0.0000 H       1  UNL1        0.0660
     45 H          10.3750   -2.5879    0.0000 H       1  UNL1        0.0660
     46 H          10.1513   -1.7401    0.0000 H       1  UNL1        0.0660
     47 H          11.9628   -0.7591    0.0000 H       1  UNL1        0.0660
     48 H          12.1864    0.0887    0.0000 H       1  UNL1        0.0660
     49 H          11.3386    0.3124    0.0000 H       1  UNL1        0.0660
@<TRIPOS>BOND
     1     1    13    1
     2     1    41    1
     3     2    14    1
     4     2    27    1
     5     3    24    1
     6     3    26    1
     7     4    25    1
     8     4    26    1
     9     5    21    1
    10     5    28    1
    11     6     7    1
    12     6     8    1
    13     6    16    1
    14     7     9    1
    15     7    13    1
    16     7    29    1
    17     8    10   ar
    18     8    12   ar
    19     9    11   ar
    20     9    14   ar
    21    10    11    1
    22    10    17   ar
    23    11    18   ar
    24    12    15   ar
    25    12    20   ar
    26    13    30    1
    27    13    31    1
    28    14    21   ar
    29    15    19   ar
    30    15    22   ar
    31    16    32    1
    32    16    33    1
    33    16    34    1
    34    17    19   ar
    35    17    35    1
    36    18    23   ar
    37    18    36    1
    38    19    37    1
    39    20    24   ar
    40    20    38    1
    41    21    23   ar
    42    22    25   ar
    43    22    39    1
    44    23    40    1
    45    24    25   ar
    46    26    42    1
    47    26    43    1
    48    27    44    1
    49    27    45    1
    50    27    46    1
    51    28    47    1
    52    28    48    1
    53    28    49    1
