@<TRIPOS>MOLECULE
IMPHY009006
 83 87 0 0 0
SMALL
GASTEIGER

@<TRIPOS>ATOM
      1 O           9.6029    0.1526    0.0000 O.3     1  UNL1       -0.3860
      2 O           3.8459   -0.7349    0.0000 O.3     1  UNL1       -0.4606
      3 O           8.2952    2.1581    0.0000 O.3     1  UNL1       -0.3889
      4 O           2.0024   -3.8443    0.0000 O.3     1  UNL1       -0.3914
      5 O          10.2550    4.1886    0.0000 O.3     1  UNL1       -0.4641
      6 O           2.1141   -0.7015    0.0000 O.2     1  UNL1       -0.2512
      7 O          12.0155    4.4643    0.0000 O.2     1  UNL1       -0.2505
      8 C           7.3955   -0.7920    0.0000 C.3     1  UNL1       -0.0235
      9 C           7.3955   -1.7920    0.0000 C.3     1  UNL1       -0.0319
     10 C           6.5294   -2.2920    0.0000 C.3     1  UNL1       -0.0305
     11 C           5.6634   -1.7920    0.0000 C.3     1  UNL1       -0.0252
     12 C           8.3417   -0.4872    0.0000 C.3     1  UNL1       -0.0043
     13 C           6.5294   -0.2920    0.0000 C.3     1  UNL1       -0.0467
     14 C           4.7534   -2.2988    0.0000 C.3     1  UNL1        0.0291
     15 C           8.3417   -2.0967    0.0000 C.3     1  UNL1       -0.0491
     16 C           5.6634   -0.7920    0.0000 C.3     1  UNL1       -0.0485
     17 C           8.9253   -1.2920    0.0000 C.3     1  UNL1       -0.0467
     18 C           6.5455   -3.3335    0.0000 C.3     1  UNL1       -0.0311
     19 C           8.6524    0.4633    0.0000 C.3     1  UNL1        0.0923
     20 C           7.3955    0.2080    0.0000 C.3     1  UNL1       -0.0590
     21 C           4.7454   -3.3404    0.0000 C.2     1  UNL1       -0.0613
     22 C           3.8266   -1.7347    0.0000 C.3     1  UNL1        0.1146
     23 C           5.6475   -3.8612    0.0000 C.2     1  UNL1       -0.0838
     24 C           4.7611   -1.2988    0.0000 C.3     1  UNL1       -0.0522
     25 C           8.9630    1.4138    0.0000 C.3     1  UNL1        0.0843
     26 C           3.8100   -3.8901    0.0000 C.3     1  UNL1       -0.0048
     27 C           2.8787   -2.2627    0.0000 C.3     1  UNL1        0.0116
     28 C           2.8703   -3.3476    0.0000 C.3     1  UNL1        0.0623
     29 C           7.7018    0.7739    0.0000 C.3     1  UNL1       -0.0334
     30 C           9.9415    1.6200    0.0000 C.3     1  UNL1       -0.0175
     31 C          10.2522    2.5705    0.0000 C.3     1  UNL1        0.0084
     32 C          11.2038    2.8779    0.0000 C.3     1  UNL1        0.0596
     33 C           2.9896   -0.2183    0.0000 C.2     1  UNL1        0.3042
     34 C           9.6658    3.3806    0.0000 C.3     1  UNL1        0.0961
     35 C          11.2055    3.8779    0.0000 C.2     1  UNL1        0.3103
     36 C          12.0118    2.2887    0.0000 C.3     1  UNL1       -0.0519
     37 C           3.0089    0.7815    0.0000 C.3     1  UNL1        0.0332
     38 H           7.4611   -2.4085    0.0000 H       1  UNL1        0.0309
     39 H           7.0688   -2.5978    0.0000 H       1  UNL1        0.0310
     40 H           6.2004   -1.4820    0.0000 H       1  UNL1        0.0313
     41 H           8.9542   -0.3910    0.0000 H       1  UNL1        0.0335
     42 H           6.9280    0.1830    0.0000 H       1  UNL1        0.0271
     43 H           6.1309    0.1830    0.0000 H       1  UNL1        0.0271
     44 H           8.0907   -2.6636    0.0000 H       1  UNL1        0.0268
     45 H           8.8791   -2.4059    0.0000 H       1  UNL1        0.0268
     46 H           5.4514   -0.2094    0.0000 H       1  UNL1        0.0268
     47 H           5.0528   -0.8996    0.0000 H       1  UNL1        0.0268
     48 H           9.3862   -1.7067    0.0000 H       1  UNL1        0.0269
     49 H           9.3862   -0.8772    0.0000 H       1  UNL1        0.0269
     50 H           6.7635   -3.9139    0.0000 H       1  UNL1        0.0310
     51 H           7.1546   -3.2180    0.0000 H       1  UNL1        0.0310
     52 H           8.0155    0.2080    0.0000 H       1  UNL1        0.0235
     53 H           7.3955    0.8280    0.0000 H       1  UNL1        0.0235
     54 H           6.7755    0.2080    0.0000 H       1  UNL1        0.0235
     55 H           3.2951   -1.4155    0.0000 H       1  UNL1        0.0743
     56 H           5.6499   -4.4812    0.0000 H       1  UNL1        0.0572
     57 H           5.3811   -1.3036    0.0000 H       1  UNL1        0.0239
     58 H           4.7659   -0.6789    0.0000 H       1  UNL1        0.0239
     59 H           4.1412   -1.2941    0.0000 H       1  UNL1        0.0239
     60 H           9.1556    2.0031    0.0000 H       1  UNL1        0.0622
     61 H           3.4127   -4.3661    0.0000 H       1  UNL1        0.0335
     62 H           4.2109   -4.3630    0.0000 H       1  UNL1        0.0335
     63 H           2.6742   -1.6774    0.0000 H       1  UNL1        0.0326
     64 H           2.2670   -2.3641    0.0000 H       1  UNL1        0.0326
     65 H           2.8691   -3.9676    0.0000 H       1  UNL1        0.0597
     66 H           7.8944    1.3633    0.0000 H       1  UNL1        0.0258
     67 H           7.1125    0.9666    0.0000 H       1  UNL1        0.0258
     68 H           7.5092    0.1846    0.0000 H       1  UNL1        0.0258
     69 H          10.0643    0.5667    0.0000 H       1  UNL1        0.2103
     70 H           9.9621    1.0004    0.0000 H       1  UNL1        0.0295
     71 H          10.5553    1.5327    0.0000 H       1  UNL1        0.0295
     72 H          10.6898    2.1314    0.0000 H       1  UNL1        0.0342
     73 H           8.4878    2.7474    0.0000 H       1  UNL1        0.2099
     74 H           2.0000   -4.4643    0.0000 H       1  UNL1        0.2098
     75 H          11.1057    2.2657    0.0000 H       1  UNL1        0.0414
     76 H           9.2058    3.7962    0.0000 H       1  UNL1        0.0700
     77 H           9.2043    2.9665    0.0000 H       1  UNL1        0.0700
     78 H          11.6465    1.7878    0.0000 H       1  UNL1        0.0238
     79 H          12.5127    1.9234    0.0000 H       1  UNL1        0.0238
     80 H          12.3771    2.7897    0.0000 H       1  UNL1        0.0238
     81 H           3.6288    0.7695    0.0000 H       1  UNL1        0.0342
     82 H           3.0208    1.4014    0.0000 H       1  UNL1        0.0342
     83 H           2.3890    0.7934    0.0000 H       1  UNL1        0.0342
@<TRIPOS>BOND
     1     1    19    1
     2     1    69    1
     3     2    22    1
     4     2    33    1
     5     3    25    1
     6     3    73    1
     7     4    28    1
     8     4    74    1
     9     5    34    1
    10     5    35    1
    11     6    33    2
    12     7    35    2
    13     8     9    1
    14     8    12    1
    15     8    13    1
    16     8    20    1
    17     9    10    1
    18     9    15    1
    19     9    38    1
    20    10    11    1
    21    10    18    1
    22    10    39    1
    23    11    14    1
    24    11    16    1
    25    11    40    1
    26    12    17    1
    27    12    19    1
    28    12    41    1
    29    13    16    1
    30    13    42    1
    31    13    43    1
    32    14    21    1
    33    14    22    1
    34    14    24    1
    35    15    17    1
    36    15    44    1
    37    15    45    1
    38    16    46    1
    39    16    47    1
    40    17    48    1
    41    17    49    1
    42    18    23    1
    43    18    50    1
    44    18    51    1
    45    19    25    1
    46    19    29    1
    47    20    52    1
    48    20    53    1
    49    20    54    1
    50    21    23    2
    51    21    26    1
    52    22    27    1
    53    22    55    1
    54    23    56    1
    55    24    57    1
    56    24    58    1
    57    24    59    1
    58    25    30    1
    59    25    60    1
    60    26    28    1
    61    26    61    1
    62    26    62    1
    63    27    28    1
    64    27    63    1
    65    27    64    1
    66    28    65    1
    67    29    66    1
    68    29    67    1
    69    29    68    1
    70    30    31    1
    71    30    70    1
    72    30    71    1
    73    31    32    1
    74    31    34    1
    75    31    72    1
    76    32    35    1
    77    32    36    1
    78    32    75    1
    79    33    37    1
    80    34    76    1
    81    34    77    1
    82    36    78    1
    83    36    79    1
    84    36    80    1
    85    37    81    1
    86    37    82    1
    87    37    83    1
