@<TRIPOS>MOLECULE
IMPHY010907
 102 105 0 0 0
SMALL
GASTEIGER

@<TRIPOS>ATOM
      1 O           7.2350   -2.1106    0.0000 O.3     1  UNL1       -0.3449
      2 O           5.5029   -2.1106    0.0000 O.3     1  UNL1       -0.3405
      3 O           7.2350   -4.1106    0.0000 O.3     1  UNL1       -0.3841
      4 O           5.5029   -5.1106    0.0000 O.3     1  UNL1       -0.3864
      5 O           3.7709   -4.1106    0.0000 O.3     1  UNL1       -0.3865
      6 O           2.9049   -2.6106    0.0000 O.3     1  UNL1       -0.3924
      7 O           4.6437   -0.0631    0.0000 O.3     1  UNL1       -0.4806
      8 O           3.1338    0.7855    0.0000 O.2     1  UNL1       -0.2510
      9 C           7.2350    0.8894    0.0000 C.3     1  UNL1       -0.0221
     10 C           8.1010    0.3894    0.0000 C.3     1  UNL1       -0.0273
     11 C           8.1010   -0.6106    0.0000 C.3     1  UNL1       -0.0052
     12 C           7.2189    1.9309    0.0000 C.3     1  UNL1       -0.0145
     13 C           6.3690    0.3894    0.0000 C.3     1  UNL1       -0.0444
     14 C           7.2350   -1.1106    0.0000 C.3     1  UNL1        0.0672
     15 C           9.0110    0.8962    0.0000 C.3     1  UNL1       -0.0454
     16 C           6.3690   -0.6106    0.0000 C.3     1  UNL1       -0.0255
     17 C           6.3690    1.3894    0.0000 C.3     1  UNL1       -0.0587
     18 C           8.1170    2.4586    0.0000 C.2     1  UNL1       -0.0730
     19 C           9.0190    1.9378    0.0000 C.3     1  UNL1       -0.0314
     20 C           6.3472    2.4208    0.0000 C.3     1  UNL1       -0.0455
     21 C           9.1010   -0.6106    0.0000 C.3     1  UNL1       -0.0572
     22 C           8.6010   -1.4766    0.0000 C.3     1  UNL1       -0.0572
     23 C           6.3356    3.4208    0.0000 C.3     1  UNL1       -0.0454
     24 C           5.4639    3.9107    0.0000 C.3     1  UNL1       -0.0142
     25 C           4.6037    3.4007    0.0000 C.3     1  UNL1       -0.0183
     26 C           8.1131    3.4586    0.0000 C.2     1  UNL1       -0.0992
     27 C           3.7319    3.8907    0.0000 C.3     1  UNL1       -0.0110
     28 C           6.3690   -2.6106    0.0000 C.3     1  UNL1        0.1882
     29 C           5.4523    4.9107    0.0000 C.2     1  UNL1       -0.0729
     30 C           4.1137    2.5290    0.0000 C.3     1  UNL1       -0.0365
     31 C           3.7204    4.8906    0.0000 C.3     1  UNL1       -0.0275
     32 C           5.1137    2.5406    0.0000 C.3     1  UNL1       -0.0585
     33 C           4.5806    5.4006    0.0000 C.2     1  UNL1       -0.0842
     34 C           6.3690   -3.6106    0.0000 C.3     1  UNL1        0.1341
     35 C           2.8718    3.3807    0.0000 C.2     1  UNL1       -0.0758
     36 C           6.3125    5.4206    0.0000 C.3     1  UNL1       -0.0435
     37 C           4.6237    1.6688    0.0000 C.3     1  UNL1        0.0453
     38 C           5.5029   -4.1106    0.0000 C.3     1  UNL1        0.1141
     39 C           4.6369   -2.6106    0.0000 C.3     1  UNL1        0.1130
     40 C           4.6369   -3.6106    0.0000 C.3     1  UNL1        0.1119
     41 C           2.0000    3.8707    0.0000 C.3     1  UNL1       -0.0437
     42 C           2.8833    2.3808    0.0000 C.2     1  UNL1       -0.0994
     43 C           3.7709   -2.1106    0.0000 C.3     1  UNL1        0.0730
     44 C           4.1338    0.7971    0.0000 C.2     1  UNL1        0.3047
     45 H           8.8338   -0.0413    0.0000 H       1  UNL1        0.0312
     46 H           7.2130    2.5508    0.0000 H       1  UNL1        0.0351
     47 H           6.1569    0.9720    0.0000 H       1  UNL1        0.0272
     48 H           5.7584    0.2817    0.0000 H       1  UNL1        0.0272
     49 H           7.7719   -1.4206    0.0000 H       1  UNL1        0.0602
     50 H           9.2156    0.3109    0.0000 H       1  UNL1        0.0271
     51 H           9.6227    0.9976    0.0000 H       1  UNL1        0.0271
     52 H           5.7584   -0.5030    0.0000 H       1  UNL1        0.0290
     53 H           6.1569   -1.1932    0.0000 H       1  UNL1        0.0290
     54 H           6.6790    1.9263    0.0000 H       1  UNL1        0.0235
     55 H           5.8320    1.6994    0.0000 H       1  UNL1        0.0235
     56 H           6.0590    0.8524    0.0000 H       1  UNL1        0.0235
     57 H           9.6291    1.8270    0.0000 H       1  UNL1        0.0310
     58 H           9.2326    2.5199    0.0000 H       1  UNL1        0.0310
     59 H           5.7354    2.5214    0.0000 H       1  UNL1        0.0271
     60 H           6.1419    1.8358    0.0000 H       1  UNL1        0.0271
     61 H           9.1010   -1.2306    0.0000 H       1  UNL1        0.0236
     62 H           8.0641   -1.7866    0.0000 H       1  UNL1        0.0236
     63 H           8.9110   -2.0136    0.0000 H       1  UNL1        0.0236
     64 H           9.1380   -1.1666    0.0000 H       1  UNL1        0.0236
     65 H           9.7210   -0.6106    0.0000 H       1  UNL1        0.0236
     66 H           9.1010    0.0094    0.0000 H       1  UNL1        0.0236
     67 H           6.9474    3.3202    0.0000 H       1  UNL1        0.0271
     68 H           6.5409    4.0058    0.0000 H       1  UNL1        0.0271
     69 H           5.4710    3.2908    0.0000 H       1  UNL1        0.0351
     70 H           3.1914    4.1945    0.0000 H       1  UNL1        0.0354
     71 H           8.6488    3.7707    0.0000 H       1  UNL1        0.0534
     72 H           7.5750    3.7666    0.0000 H       1  UNL1        0.0534
     73 H           6.3690   -1.9906    0.0000 H       1  UNL1        0.0937
     74 H           3.6342    2.9220    0.0000 H       1  UNL1        0.0276
     75 H           3.6434    2.1250    0.0000 H       1  UNL1        0.0276
     76 H           3.5016    5.4707    0.0000 H       1  UNL1        0.0313
     77 H           3.1111    4.7759    0.0000 H       1  UNL1        0.0313
     78 H           4.5804    2.2244    0.0000 H       1  UNL1        0.0235
     79 H           5.4298    2.0072    0.0000 H       1  UNL1        0.0235
     80 H           5.6470    2.8567    0.0000 H       1  UNL1        0.0235
     81 H           4.5734    6.0206    0.0000 H       1  UNL1        0.0572
     82 H           6.3690   -4.2306    0.0000 H       1  UNL1        0.0671
     83 H           6.6287    4.8873    0.0000 H       1  UNL1        0.0274
     84 H           6.8458    5.7368    0.0000 H       1  UNL1        0.0274
     85 H           5.9963    5.9539    0.0000 H       1  UNL1        0.0274
     86 H           5.1032    1.2758    0.0000 H       1  UNL1        0.0378
     87 H           5.0940    2.0728    0.0000 H       1  UNL1        0.0378
     88 H           4.9660   -4.4206    0.0000 H       1  UNL1        0.0648
     89 H           4.6369   -1.9906    0.0000 H       1  UNL1        0.0647
     90 H           4.1000   -3.3006    0.0000 H       1  UNL1        0.0647
     91 H           2.3038    4.4111    0.0000 H       1  UNL1        0.0274
     92 H           1.4595    4.1744    0.0000 H       1  UNL1        0.0274
     93 H           1.6962    3.3302    0.0000 H       1  UNL1        0.0274
     94 H           7.2350   -4.7306    0.0000 H       1  UNL1        0.2101
     95 H           2.3500    2.0646    0.0000 H       1  UNL1        0.0534
     96 H           3.4238    2.0770    0.0000 H       1  UNL1        0.0534
     97 H           4.1694   -1.6357    0.0000 H       1  UNL1        0.0584
     98 H           3.3724   -1.6357    0.0000 H       1  UNL1        0.0584
     99 H           4.9660   -5.4206    0.0000 H       1  UNL1        0.2100
    100 H           3.7709   -4.7306    0.0000 H       1  UNL1        0.2100
    101 H           2.3679   -2.3006    0.0000 H       1  UNL1        0.2095
    102 H           4.3400   -0.6036    0.0000 H       1  UNL1        0.2951
@<TRIPOS>BOND
     1    14     1    1
     2    28     1    1
     3     2    28    1
     4     2    39    1
     5    34     3    1
     6     3    94    1
     7    38     4    1
     8     4    99    1
     9    40     5    1
    10     5   100    1
    11     6    43    1
    12     6   101    1
    13     7    44    1
    14     7   102    1
    15     8    44    2
    16     9    10    1
    17     9    12    1
    18     9    13    1
    19     9    17    1
    20    10    11    1
    21    10    15    1
    22    10    45    1
    23    11    14    1
    24    11    21    1
    25    11    22    1
    26    12    18    1
    27    12    20    1
    28    12    46    1
    29    13    16    1
    30    13    47    1
    31    13    48    1
    32    14    16    1
    33    14    49    1
    34    15    19    1
    35    15    50    1
    36    15    51    1
    37    16    52    1
    38    16    53    1
    39    17    54    1
    40    17    55    1
    41    17    56    1
    42    18    19    1
    43    18    26    2
    44    19    57    1
    45    19    58    1
    46    20    23    1
    47    20    59    1
    48    20    60    1
    49    21    61    1
    50    21    65    1
    51    21    66    1
    52    22    62    1
    53    22    63    1
    54    22    64    1
    55    24    23    1
    56    23    67    1
    57    23    68    1
    58    24    25    1
    59    24    29    1
    60    24    69    1
    61    25    27    1
    62    25    30    1
    63    25    32    1
    64    26    71    1
    65    26    72    1
    66    27    31    1
    67    27    35    1
    68    27    70    1
    69    28    34    1
    70    28    73    1
    71    29    33    2
    72    29    36    1
    73    30    37    1
    74    30    74    1
    75    30    75    1
    76    31    33    1
    77    31    76    1
    78    31    77    1
    79    32    78    1
    80    32    79    1
    81    32    80    1
    82    33    81    1
    83    34    38    1
    84    34    82    1
    85    35    41    1
    86    35    42    2
    87    36    83    1
    88    36    84    1
    89    36    85    1
    90    37    44    1
    91    37    86    1
    92    37    87    1
    93    38    40    1
    94    38    88    1
    95    39    40    1
    96    39    43    1
    97    39    89    1
    98    40    90    1
    99    41    91    1
   100    41    92    1
   101    41    93    1
   102    42    95    1
   103    42    96    1
   104    43    97    1
   105    43    98    1
