@<TRIPOS>MOLECULE
IMPHY013082
 85 89 0 0 0
SMALL
GASTEIGER

@<TRIPOS>ATOM
      1 O           5.7726   -2.9697    0.0000 O.3     1  UNL1       -0.3910
      2 O          11.1246    3.2439    0.0000 O.3     1  UNL1       -0.3912
      3 O           3.2914   -2.7672    0.0000 O.3     1  UNL1       -0.3910
      4 O           4.5096   -3.3859    0.0000 O.3     1  UNL1       -0.3943
      5 O          11.7572    0.7838    0.0000 O.3     1  UNL1       -0.3944
      6 C           7.5167    0.0995    0.0000 C.3     1  UNL1       -0.0193
      7 C           7.5167    1.0995    0.0000 C.3     1  UNL1       -0.0257
      8 C           8.4106    1.6342    0.0000 C.3     1  UNL1       -0.0249
      9 C           6.6507   -0.4005    0.0000 C.3     1  UNL1       -0.0028
     10 C           9.3167    1.1204    0.0000 C.3     1  UNL1       -0.0255
     11 C           8.4106   -0.4351    0.0000 C.3     1  UNL1       -0.0463
     12 C           5.7847    0.0995    0.0000 C.2     1  UNL1       -0.0631
     13 C           4.8746   -0.4073    0.0000 C.3     1  UNL1       -0.0064
     14 C           4.8666   -1.4489    0.0000 C.3     1  UNL1        0.0521
     15 C           9.3167    0.0787    0.0000 C.3     1  UNL1       -0.0485
     16 C          10.2605    1.6556    0.0000 C.3     1  UNL1        0.0203
     17 C           6.6667   -1.4420    0.0000 C.3     1  UNL1       -0.0165
     18 C           6.6507    1.5995    0.0000 C.3     1  UNL1       -0.0306
     19 C           8.3856    2.7189    0.0000 C.3     1  UNL1       -0.0447
     20 C           5.7687   -1.9697    0.0000 C.3     1  UNL1        0.0667
     21 C           7.8588   -0.8401    0.0000 C.3     1  UNL1       -0.0585
     22 C           5.7847    1.0995    0.0000 C.2     1  UNL1       -0.0836
     23 C          10.2605    2.7406    0.0000 C.3     1  UNL1        0.0630
     24 C           7.5408    2.1275    0.0000 C.3     1  UNL1       -0.0590
     25 C           7.2935   -1.1665    0.0000 C.3     1  UNL1       -0.0552
     26 C           3.9478    0.1568    0.0000 C.3     1  UNL1       -0.0405
     27 C           9.3167    3.2758    0.0000 C.3     1  UNL1       -0.0257
     28 C           3.9312   -1.9986    0.0000 C.3     1  UNL1        0.0663
     29 C           2.9999   -0.3712    0.0000 C.3     1  UNL1       -0.0320
     30 C           2.9916   -1.4561    0.0000 C.3     1  UNL1       -0.0210
     31 C           4.8589   -2.4489    0.0000 C.3     1  UNL1        0.0551
     32 C          11.2605    1.6517    0.0000 C.3     1  UNL1        0.0522
     33 C          10.7572    0.7876    0.0000 C.3     1  UNL1       -0.0548
     34 C           2.0000   -0.3596    0.0000 C.3     1  UNL1       -0.0597
     35 C           2.5100    0.5006    0.0000 C.3     1  UNL1       -0.0597
     36 H           8.0560    0.7937    0.0000 H       1  UNL1        0.0315
     37 H           9.8524    0.8083    0.0000 H       1  UNL1        0.0313
     38 H           8.0060   -0.9049    0.0000 H       1  UNL1        0.0271
     39 H           8.8043   -0.9141    0.0000 H       1  UNL1        0.0271
     40 H           4.8866    0.2126    0.0000 H       1  UNL1        0.0354
     41 H           9.5258   -0.5050    0.0000 H       1  UNL1        0.0268
     42 H           9.9276    0.1848    0.0000 H       1  UNL1        0.0268
     43 H           6.8848   -2.0224    0.0000 H       1  UNL1        0.0299
     44 H           7.2759   -1.3265    0.0000 H       1  UNL1        0.0299
     45 H           7.0492    2.0745    0.0000 H       1  UNL1        0.0310
     46 H           6.2522    2.0745    0.0000 H       1  UNL1        0.0310
     47 H           8.1631    3.2976    0.0000 H       1  UNL1        0.0271
     48 H           7.7773    2.5987    0.0000 H       1  UNL1        0.0271
     49 H           6.3074   -2.2766    0.0000 H       1  UNL1        0.0601
     50 H           7.2762   -1.0522    0.0000 H       1  UNL1        0.0235
     51 H           8.0709   -1.4227    0.0000 H       1  UNL1        0.0235
     52 H           8.4414   -0.6280    0.0000 H       1  UNL1        0.0235
     53 H           5.2477    1.4095    0.0000 H       1  UNL1        0.0572
     54 H          10.7980    2.4316    0.0000 H       1  UNL1        0.0599
     55 H           7.8466    2.6668    0.0000 H       1  UNL1        0.0235
     56 H           7.0015    2.4334    0.0000 H       1  UNL1        0.0235
     57 H           7.2349    1.5882    0.0000 H       1  UNL1        0.0235
     58 H           6.8185   -1.5650    0.0000 H       1  UNL1        0.0238
     59 H           7.6920   -1.6415    0.0000 H       1  UNL1        0.0238
     60 H           7.7684   -0.7680    0.0000 H       1  UNL1        0.0238
     61 H           4.3560    0.6234    0.0000 H       1  UNL1        0.0276
     62 H           3.5579    0.6388    0.0000 H       1  UNL1        0.0276
     63 H           9.7103    3.7548    0.0000 H       1  UNL1        0.0290
     64 H           8.9121    3.7456    0.0000 H       1  UNL1        0.0290
     65 H           4.3325   -2.4713    0.0000 H       1  UNL1        0.0601
     66 H           2.3816   -1.3453    0.0000 H       1  UNL1        0.0295
     67 H           2.7780   -2.0382    0.0000 H       1  UNL1        0.0295
     68 H           5.3066   -2.8778    0.0000 H       1  UNL1        0.0564
     69 H           4.2492   -2.3365    0.0000 H       1  UNL1        0.0564
     70 H          11.8439    1.8615    0.0000 H       1  UNL1        0.0563
     71 H          11.1552    2.2627    0.0000 H       1  UNL1        0.0563
     72 H          10.2190    0.4797    0.0000 H       1  UNL1        0.0237
     73 H          11.0651    0.2495    0.0000 H       1  UNL1        0.0237
     74 H          11.2953    1.0956    0.0000 H       1  UNL1        0.0237
     75 H           6.3107   -3.2776    0.0000 H       1  UNL1        0.2098
     76 H           2.0072    0.2603    0.0000 H       1  UNL1        0.0235
     77 H           1.3800   -0.3524    0.0000 H       1  UNL1        0.0235
     78 H           1.9928   -0.9796    0.0000 H       1  UNL1        0.0235
     79 H           3.0505    0.8043    0.0000 H       1  UNL1        0.0235
     80 H           2.2062    1.0411    0.0000 H       1  UNL1        0.0235
     81 H           1.9695    0.1968    0.0000 H       1  UNL1        0.0235
     82 H          11.1222    3.8639    0.0000 H       1  UNL1        0.2098
     83 H           2.6804   -2.6619    0.0000 H       1  UNL1        0.2098
     84 H           4.9045   -3.8639    0.0000 H       1  UNL1        0.2094
     85 H          12.3771    0.7814    0.0000 H       1  UNL1        0.2094
@<TRIPOS>BOND
     1     1    20    1
     2     1    75    1
     3     2    23    1
     4     2    82    1
     5     3    28    1
     6     3    83    1
     7     4    31    1
     8     4    84    1
     9     5    32    1
    10     5    85    1
    11     6     7    1
    12     6     9    1
    13     6    11    1
    14     6    21    1
    15     7     8    1
    16     7    18    1
    17     7    36    1
    18     8    10    1
    19     8    19    1
    20     8    24    1
    21     9    12    1
    22     9    17    1
    23     9    25    1
    24    10    15    1
    25    10    16    1
    26    10    37    1
    27    11    15    1
    28    11    38    1
    29    11    39    1
    30    12    13    1
    31    12    22    2
    32    13    14    1
    33    13    26    1
    34    13    40    1
    35    14    20    1
    36    14    28    1
    37    14    31    1
    38    15    41    1
    39    15    42    1
    40    16    23    1
    41    16    32    1
    42    16    33    1
    43    17    20    1
    44    17    43    1
    45    17    44    1
    46    18    22    1
    47    18    45    1
    48    18    46    1
    49    19    27    1
    50    19    47    1
    51    19    48    1
    52    20    49    1
    53    21    50    1
    54    21    51    1
    55    21    52    1
    56    22    53    1
    57    23    27    1
    58    23    54    1
    59    24    55    1
    60    24    56    1
    61    24    57    1
    62    25    58    1
    63    25    59    1
    64    25    60    1
    65    26    29    1
    66    26    61    1
    67    26    62    1
    68    27    63    1
    69    27    64    1
    70    28    30    1
    71    28    65    1
    72    29    30    1
    73    29    34    1
    74    29    35    1
    75    30    66    1
    76    30    67    1
    77    31    68    1
    78    31    69    1
    79    32    70    1
    80    32    71    1
    81    33    72    1
    82    33    73    1
    83    33    74    1
    84    34    76    1
    85    34    77    1
    86    34    78    1
    87    35    79    1
    88    35    80    1
    89    35    81    1
