@<TRIPOS>MOLECULE
IMPHY012661
 44 46 0 0 0
SMALL
GASTEIGER

@<TRIPOS>ATOM
      1 O           3.5836   -1.3394    0.0000 O.3     1  UNL1       -0.4580
      2 O           2.0000   -0.5346    0.0000 O.2     1  UNL1       -0.2508
      3 C           5.3958    0.4654    0.0000 C.3     1  UNL1       -0.0218
      4 C           6.2619   -0.0346    0.0000 C.3     1  UNL1       -0.0300
      5 C           4.5298   -0.0346    0.0000 C.3     1  UNL1        0.0144
      6 C           7.1719    0.4722    0.0000 C.3     1  UNL1       -0.0315
      7 C           4.5298   -1.0346    0.0000 C.3     1  UNL1        0.1145
      8 C           6.2619   -1.0346    0.0000 C.3     1  UNL1       -0.0456
      9 C           5.3798    1.5069    0.0000 C.3     1  UNL1       -0.0469
     10 C           5.3958   -1.5346    0.0000 C.3     1  UNL1       -0.0125
     11 C           7.1799    1.5138    0.0000 C.3     1  UNL1       -0.0476
     12 C           6.2778    2.0346    0.0000 C.3     1  UNL1       -0.0521
     13 C           3.5836    0.2701    0.0000 C.3     1  UNL1        0.0519
     14 C           4.5298    0.9654    0.0000 C.3     1  UNL1       -0.0589
     15 C           8.1718    0.4607    0.0000 C.3     1  UNL1       -0.0595
     16 C           7.6618   -0.3995    0.0000 C.3     1  UNL1       -0.0595
     17 C           4.5298   -2.0346    0.0000 C.3     1  UNL1       -0.0245
     18 C           3.0000   -0.5346    0.0000 C.2     1  UNL1        0.3080
     19 H           6.9947   -0.4653    0.0000 H       1  UNL1        0.0311
     20 H           5.2660   -0.4596    0.0000 H       1  UNL1        0.0350
     21 H           6.4739   -1.6172    0.0000 H       1  UNL1        0.0270
     22 H           6.8725   -0.9270    0.0000 H       1  UNL1        0.0270
     23 H           5.1618    2.0873    0.0000 H       1  UNL1        0.0271
     24 H           4.7706    1.3914    0.0000 H       1  UNL1        0.0271
     25 H           4.9973   -2.0096    0.0000 H       1  UNL1        0.0304
     26 H           5.7944   -2.0096    0.0000 H       1  UNL1        0.0304
     27 H           7.7899    1.4030    0.0000 H       1  UNL1        0.0271
     28 H           7.3935    2.0959    0.0000 H       1  UNL1        0.0271
     29 H           6.6751    2.5106    0.0000 H       1  UNL1        0.0266
     30 H           5.8769    2.5075    0.0000 H       1  UNL1        0.0266
     31 H           3.8346    0.8370    0.0000 H       1  UNL1        0.0382
     32 H           3.0462    0.5793    0.0000 H       1  UNL1        0.0382
     33 H           4.8398    1.5023    0.0000 H       1  UNL1        0.0235
     34 H           3.9929    1.2754    0.0000 H       1  UNL1        0.0235
     35 H           4.2198    0.4284    0.0000 H       1  UNL1        0.0235
     36 H           8.1646   -0.1593    0.0000 H       1  UNL1        0.0235
     37 H           8.7918    0.4535    0.0000 H       1  UNL1        0.0235
     38 H           8.1790    1.0806    0.0000 H       1  UNL1        0.0235
     39 H           7.1214   -0.7033    0.0000 H       1  UNL1        0.0235
     40 H           7.9656   -0.9400    0.0000 H       1  UNL1        0.0235
     41 H           8.2023   -0.0958    0.0000 H       1  UNL1        0.0235
     42 H           3.9098   -2.0346    0.0000 H       1  UNL1        0.0268
     43 H           4.5298   -2.6546    0.0000 H       1  UNL1        0.0268
     44 H           5.1498   -2.0346    0.0000 H       1  UNL1        0.0268
@<TRIPOS>BOND
     1     1     7    1
     2     1    18    1
     3     2    18    2
     4     3     4    1
     5     3     5    1
     6     3     9    1
     7     3    14    1
     8     4     6    1
     9     4     8    1
    10     4    19    1
    11     5     7    1
    12     5    13    1
    13     5    20    1
    14     6    11    1
    15     6    15    1
    16     6    16    1
    17     7    10    1
    18     7    17    1
    19     8    10    1
    20     8    21    1
    21     8    22    1
    22     9    12    1
    23     9    23    1
    24     9    24    1
    25    10    25    1
    26    10    26    1
    27    11    12    1
    28    11    27    1
    29    11    28    1
    30    12    29    1
    31    12    30    1
    32    13    18    1
    33    13    31    1
    34    13    32    1
    35    14    33    1
    36    14    34    1
    37    14    35    1
    38    15    36    1
    39    15    37    1
    40    15    38    1
    41    16    39    1
    42    16    40    1
    43    16    41    1
    44    17    42    1
    45    17    43    1
    46    17    44    1
