@<TRIPOS>MOLECULE
IMPHY000899
 88 92 0 0 0
SMALL
GASTEIGER

@<TRIPOS>ATOM
      1 O           3.7320   -2.5933    0.0000 O.3     1  UNL1       -0.4610
      2 O           2.8718   -1.0900    0.0000 O.2     1  UNL1       -0.2512
      3 C           8.2591   -1.0410    0.0000 C.3     1  UNL1       -0.0231
      4 C           9.1251   -0.5410    0.0000 C.3     1  UNL1       -0.0233
      5 C           7.3931   -0.5410    0.0000 C.3     1  UNL1       -0.0294
      6 C           9.1251    0.4590    0.0000 C.3     1  UNL1       -0.0318
      7 C           6.4831   -1.0478    0.0000 C.3     1  UNL1       -0.0252
      8 C          10.0191    0.9937    0.0000 C.3     1  UNL1       -0.0318
      9 C           6.4750   -2.0894    0.0000 C.3     1  UNL1       -0.0268
     10 C          10.9251    0.4799    0.0000 C.3     1  UNL1       -0.0289
     11 C           8.2752   -2.0825    0.0000 C.3     1  UNL1       -0.0466
     12 C           7.3931    0.4590    0.0000 C.3     1  UNL1       -0.0489
     13 C          10.0191   -1.0756    0.0000 C.3     1  UNL1       -0.0464
     14 C           8.2591    0.9590    0.0000 C.3     1  UNL1       -0.0491
     15 C           7.3771   -2.6102    0.0000 C.3     1  UNL1       -0.0486
     16 C          10.9251   -0.5618    0.0000 C.3     1  UNL1       -0.0468
     17 C           5.5396   -2.6391    0.0000 C.3     1  UNL1        0.0055
     18 C           5.5562   -0.4837    0.0000 C.3     1  UNL1       -0.0437
     19 C           8.9019   -1.8070    0.0000 C.3     1  UNL1       -0.0588
     20 C           9.9940    2.0784    0.0000 C.3     1  UNL1       -0.0443
     21 C           9.4672   -1.4806    0.0000 C.3     1  UNL1       -0.0588
     22 C          11.8689    1.0151    0.0000 C.3     1  UNL1       -0.0469
     23 C           6.4908   -0.0478    0.0000 C.3     1  UNL1       -0.0590
     24 C          10.9251    2.6353    0.0000 C.3     1  UNL1       -0.0346
     25 C           4.6000   -2.0966    0.0000 C.3     1  UNL1        0.1084
     26 C           4.6084   -1.0117    0.0000 C.3     1  UNL1       -0.0146
     27 C          11.8689    2.1001    0.0000 C.3     1  UNL1       -0.0474
     28 C          11.7950   -0.0135    0.0000 C.3     1  UNL1       -0.0593
     29 C           5.0430   -3.5071    0.0000 C.3     1  UNL1       -0.0562
     30 C           6.0430   -3.5032    0.0000 C.3     1  UNL1       -0.0562
     31 C          11.4151    3.5071    0.0000 C.3     1  UNL1       -0.0598
     32 C          10.4152    3.4955    0.0000 C.3     1  UNL1       -0.0598
     33 C           2.8680   -2.0900    0.0000 C.2     1  UNL1        0.3042
     34 C           2.0000   -2.5866    0.0000 C.3     1  UNL1        0.0332
     35 H           8.1292   -0.1160    0.0000 H       1  UNL1        0.0312
     36 H           9.1186    1.3090    0.0000 H       1  UNL1        0.0309
     37 H          10.5512    1.3119    0.0000 H       1  UNL1        0.0309
     38 H           6.4774   -2.7094    0.0000 H       1  UNL1        0.0312
     39 H           8.4932   -2.6629    0.0000 H       1  UNL1        0.0271
     40 H           8.8843   -1.9670    0.0000 H       1  UNL1        0.0271
     41 H           7.1810    1.0416    0.0000 H       1  UNL1        0.0268
     42 H           6.7825    0.3514    0.0000 H       1  UNL1        0.0268
     43 H           9.6145   -1.5454    0.0000 H       1  UNL1        0.0271
     44 H          10.4127   -1.5546    0.0000 H       1  UNL1        0.0271
     45 H           8.6576    1.4340    0.0000 H       1  UNL1        0.0268
     46 H           7.8606    1.4340    0.0000 H       1  UNL1        0.0268
     47 H           6.9798   -3.0862    0.0000 H       1  UNL1        0.0268
     48 H           7.7781   -3.0831    0.0000 H       1  UNL1        0.0268
     49 H          11.1342   -1.1455    0.0000 H       1  UNL1        0.0271
     50 H          11.5360   -0.4557    0.0000 H       1  UNL1        0.0271
     51 H           5.9644   -0.0171    0.0000 H       1  UNL1        0.0272
     52 H           5.1663   -0.0017    0.0000 H       1  UNL1        0.0272
     53 H           8.4269   -2.2055    0.0000 H       1  UNL1        0.0235
     54 H           9.3004   -2.2820    0.0000 H       1  UNL1        0.0235
     55 H           9.3768   -1.4085    0.0000 H       1  UNL1        0.0235
     56 H           9.7715    2.6571    0.0000 H       1  UNL1        0.0273
     57 H           9.3857    1.9582    0.0000 H       1  UNL1        0.0273
     58 H           8.8846   -1.6927    0.0000 H       1  UNL1        0.0235
     59 H           9.6794   -2.0632    0.0000 H       1  UNL1        0.0235
     60 H          10.0498   -1.2685    0.0000 H       1  UNL1        0.0235
     61 H          12.0780    0.4314    0.0000 H       1  UNL1        0.0271
     62 H          12.4798    1.1212    0.0000 H       1  UNL1        0.0271
     63 H           7.1108   -0.0526    0.0000 H       1  UNL1        0.0235
     64 H           6.4956    0.5721    0.0000 H       1  UNL1        0.0235
     65 H           5.8708   -0.0431    0.0000 H       1  UNL1        0.0235
     66 H           4.5988   -2.7166    0.0000 H       1  UNL1        0.0739
     67 H           4.4038   -0.4264    0.0000 H       1  UNL1        0.0301
     68 H           3.9967   -1.1131    0.0000 H       1  UNL1        0.0301
     69 H          12.4798    1.9940    0.0000 H       1  UNL1        0.0271
     70 H          12.0780    2.6838    0.0000 H       1  UNL1        0.0271
     71 H          11.4891   -0.5528    0.0000 H       1  UNL1        0.0235
     72 H          12.3343   -0.3193    0.0000 H       1  UNL1        0.0235
     73 H          12.1008    0.5259    0.0000 H       1  UNL1        0.0235
     74 H           5.5072   -3.8153    0.0000 H       1  UNL1        0.0236
     75 H           6.3550   -4.0390    0.0000 H       1  UNL1        0.0236
     76 H           6.5787   -3.1912    0.0000 H       1  UNL1        0.0236
     77 H           4.5048   -3.1992    0.0000 H       1  UNL1        0.0236
     78 H           4.7350   -4.0452    0.0000 H       1  UNL1        0.0236
     79 H           5.5811   -3.8150    0.0000 H       1  UNL1        0.0236
     80 H          10.9485    3.8117    0.0000 H       1  UNL1        0.0235
     81 H          10.0990    4.0288    0.0000 H       1  UNL1        0.0235
     82 H           9.8818    3.1793    0.0000 H       1  UNL1        0.0235
     83 H          11.9556    3.2033    0.0000 H       1  UNL1        0.0235
     84 H          11.7189    4.0476    0.0000 H       1  UNL1        0.0235
     85 H          10.8746    3.8108    0.0000 H       1  UNL1        0.0235
     86 H           1.6921   -2.0485    0.0000 H       1  UNL1        0.0342
     87 H           1.4619   -2.8945    0.0000 H       1  UNL1        0.0342
     88 H           2.3079   -3.1247    0.0000 H       1  UNL1        0.0342
@<TRIPOS>BOND
     1    25     1    1
     2     1    33    1
     3     2    33    2
     4     3     4    1
     5     3     5    1
     6     3    11    1
     7     3    19    1
     8     4     6    1
     9     4    13    1
    10     4    21    1
    11     5     7    1
    12     5    12    1
    13     5    35    1
    14     6     8    1
    15     6    14    1
    16     6    36    1
    17     7     9    1
    18     7    18    1
    19     7    23    1
    20     8    10    1
    21     8    20    1
    22     8    37    1
    23     9    15    1
    24     9    17    1
    25     9    38    1
    26    10    16    1
    27    10    22    1
    28    10    28    1
    29    11    15    1
    30    11    39    1
    31    11    40    1
    32    12    14    1
    33    12    41    1
    34    12    42    1
    35    13    16    1
    36    13    43    1
    37    13    44    1
    38    14    45    1
    39    14    46    1
    40    15    47    1
    41    15    48    1
    42    16    49    1
    43    16    50    1
    44    17    25    1
    45    17    29    1
    46    17    30    1
    47    18    26    1
    48    18    51    1
    49    18    52    1
    50    19    53    1
    51    19    54    1
    52    19    55    1
    53    20    24    1
    54    20    56    1
    55    20    57    1
    56    21    58    1
    57    21    59    1
    58    21    60    1
    59    22    27    1
    60    22    61    1
    61    22    62    1
    62    23    63    1
    63    23    64    1
    64    23    65    1
    65    24    27    1
    66    24    31    1
    67    24    32    1
    68    25    26    1
    69    25    66    1
    70    26    67    1
    71    26    68    1
    72    27    69    1
    73    27    70    1
    74    28    71    1
    75    28    72    1
    76    28    73    1
    77    29    77    1
    78    29    78    1
    79    29    79    1
    80    30    74    1
    81    30    75    1
    82    30    76    1
    83    31    83    1
    84    31    84    1
    85    31    85    1
    86    32    80    1
    87    32    81    1
    88    32    82    1
    89    33    34    1
    90    34    86    1
    91    34    87    1
    92    34    88    1
