@<TRIPOS>MOLECULE
IMPHY004505
 75 77 0 0 0
SMALL
GASTEIGER

@<TRIPOS>ATOM
      1 CL         12.7562    7.3072    0.0000 Cl      1  UNL1        0.0000
      2 N           3.2018   11.8100    0.0000 N.ar    2  UNL2       -0.1946
      3 N           7.5319    3.3100    0.0000 N.ar    2  UNL2       -0.1946
      4 N           3.2018   14.8100    0.0000 N.pl3   2  UNL2       -0.3572
      5 N           7.5319    0.3100    0.0000 N.pl3   2  UNL2       -0.3572
      6 C           5.7998    7.3100    0.0000 C.3     2  UNL2       -0.0531
      7 C           4.9338    7.8100    0.0000 C.3     2  UNL2       -0.0531
      8 C           4.9338    8.8100    0.0000 C.3     2  UNL2       -0.0529
      9 C           5.7998    6.3100    0.0000 C.3     2  UNL2       -0.0529
     10 C           4.0678    9.3100    0.0000 C.3     2  UNL2       -0.0473
     11 C           6.6659    5.8100    0.0000 C.3     2  UNL2       -0.0473
     12 C           4.0678   10.3100    0.0000 C.3     2  UNL2        0.0070
     13 C           6.6659    4.8100    0.0000 C.3     2  UNL2        0.0070
     14 C           3.2018   10.8100    0.0000 C.3     2  UNL2        0.1513
     15 C           7.5319    4.3100    0.0000 C.3     2  UNL2        0.1513
     16 C           2.3358   12.3100    0.0000 C.ar    2  UNL2        0.2169
     17 C           8.3979    2.8100    0.0000 C.ar    2  UNL2        0.2169
     18 C           6.6659    2.8100    0.0000 C.ar    2  UNL2        0.1831
     19 C           4.0678   12.3100    0.0000 C.ar    2  UNL2        0.1831
     20 C           2.3358   13.3100    0.0000 C.ar    2  UNL2        0.0670
     21 C           8.3979    1.8100    0.0000 C.ar    2  UNL2        0.0670
     22 C           6.6659    1.8100    0.0000 C.ar    2  UNL2        0.0263
     23 C           4.0678   13.3100    0.0000 C.ar    2  UNL2        0.0263
     24 C           3.2018   13.8100    0.0000 C.ar    2  UNL2        0.0440
     25 C           7.5319    1.3100    0.0000 C.ar    2  UNL2        0.0440
     26 C           9.2919    3.3447    0.0000 C.ar    2  UNL2        0.0104
     27 C           1.4418   11.7753    0.0000 C.ar    2  UNL2        0.0104
     28 C           5.7998    3.3100    0.0000 C.3     2  UNL2        0.0208
     29 C           4.9338   11.8100    0.0000 C.3     2  UNL2        0.0208
     30 C           9.2919    1.2753    0.0000 C.ar    2  UNL2       -0.0465
     31 C           1.4418   13.8447    0.0000 C.ar    2  UNL2       -0.0465
     32 C           0.5357   12.2892    0.0000 C.ar    2  UNL2       -0.0555
     33 C          10.1979    2.8308    0.0000 C.ar    2  UNL2       -0.0555
     34 C           0.5357   13.3308    0.0000 C.ar    2  UNL2       -0.0607
     35 C          10.1979    1.7892    0.0000 C.ar    2  UNL2       -0.0607
     36 H           4.3232    7.9177    0.0000 H       2  UNL2        0.0265
     37 H           4.7218    7.2274    0.0000 H       2  UNL2        0.0265
     38 H           6.4104    7.2023    0.0000 H       2  UNL2        0.0265
     39 H           6.0119    7.8926    0.0000 H       2  UNL2        0.0265
     40 H           5.5444    8.7023    0.0000 H       2  UNL2        0.0265
     41 H           5.1459    9.3926    0.0000 H       2  UNL2        0.0265
     42 H           5.1893    6.4177    0.0000 H       2  UNL2        0.0265
     43 H           5.5878    5.7274    0.0000 H       2  UNL2        0.0265
     44 H           3.4572    9.4177    0.0000 H       2  UNL2        0.0267
     45 H           3.8557    8.7274    0.0000 H       2  UNL2        0.0267
     46 H           7.2764    5.7023    0.0000 H       2  UNL2        0.0267
     47 H           6.8779    6.3926    0.0000 H       2  UNL2        0.0267
     48 H           4.6784   10.2023    0.0000 H       2  UNL2        0.0326
     49 H           4.2798   10.8926    0.0000 H       2  UNL2        0.0326
     50 H           6.0553    4.9177    0.0000 H       2  UNL2        0.0326
     51 H           6.4538    4.2274    0.0000 H       2  UNL2        0.0326
     52 H           2.5912   10.9177    0.0000 H       2  UNL2        0.1031
     53 H           2.9897   10.2274    0.0000 H       2  UNL2        0.1031
     54 H           8.1425    4.2023    0.0000 H       2  UNL2        0.1031
     55 H           7.7440    4.8926    0.0000 H       2  UNL2        0.1031
     56 H           4.6047   13.6200    0.0000 H       2  UNL2        0.0698
     57 H           6.1289    1.5000    0.0000 H       2  UNL2        0.0698
     58 H           1.4490   11.1554    0.0000 H       2  UNL2        0.0683
     59 H           9.2847    3.9646    0.0000 H       2  UNL2        0.0683
     60 H           4.6238   11.2731    0.0000 H       2  UNL2        0.0336
     61 H           6.1098    3.8469    0.0000 H       2  UNL2        0.0336
     62 H           5.2629    3.6200    0.0000 H       2  UNL2        0.0336
     63 H           5.4898    2.7731    0.0000 H       2  UNL2        0.0336
     64 H           5.4708   11.5000    0.0000 H       2  UNL2        0.0336
     65 H           5.2438   12.3469    0.0000 H       2  UNL2        0.0336
     66 H           1.4490   14.4646    0.0000 H       2  UNL2        0.0626
     67 H           9.2847    0.6554    0.0000 H       2  UNL2        0.0626
     68 H           0.0000   11.9771    0.0000 H       2  UNL2        0.0620
     69 H          10.7337    3.1429    0.0000 H       2  UNL2        0.0620
     70 H           0.0000   13.6429    0.0000 H       2  UNL2        0.0618
     71 H          10.7337    1.4771    0.0000 H       2  UNL2        0.0618
     72 H           3.7387   15.1200    0.0000 H       2  UNL2        0.1423
     73 H           2.6648   15.1200    0.0000 H       2  UNL2        0.1423
     74 H           6.9950    0.0000    0.0000 H       2  UNL2        0.1423
     75 H           8.0688    0.0000    0.0000 H       2  UNL2        0.1423
@<TRIPOS>UNITY_ATOM_ATTR
1 1
charge -1
2 1
charge 1
3 1
charge 1
@<TRIPOS>BOND
     1     2    14    1
     2     2    16   ar
     3     2    19   ar
     4     3    15    1
     5     3    17   ar
     6     3    18   ar
     7     4    24    1
     8     4    72    1
     9     4    73    1
    10     5    25    1
    11     5    74    1
    12     5    75    1
    13     6     7    1
    14     6     9    1
    15     6    38    1
    16     6    39    1
    17     7     8    1
    18     7    36    1
    19     7    37    1
    20     8    10    1
    21     8    40    1
    22     8    41    1
    23     9    11    1
    24     9    42    1
    25     9    43    1
    26    10    12    1
    27    10    44    1
    28    10    45    1
    29    11    13    1
    30    11    46    1
    31    11    47    1
    32    12    14    1
    33    12    48    1
    34    12    49    1
    35    13    15    1
    36    13    50    1
    37    13    51    1
    38    14    52    1
    39    14    53    1
    40    15    54    1
    41    15    55    1
    42    16    20   ar
    43    16    27   ar
    44    17    21   ar
    45    17    26   ar
    46    18    22   ar
    47    18    28    1
    48    19    23   ar
    49    19    29    1
    50    20    24   ar
    51    20    31   ar
    52    21    25   ar
    53    21    30   ar
    54    22    25   ar
    55    22    57    1
    56    23    24   ar
    57    23    56    1
    58    26    33   ar
    59    26    59    1
    60    27    32   ar
    61    27    58    1
    62    28    61    1
    63    28    62    1
    64    28    63    1
    65    29    60    1
    66    29    64    1
    67    29    65    1
    68    30    35   ar
    69    30    67    1
    70    31    34   ar
    71    31    66    1
    72    32    34   ar
    73    32    68    1
    74    33    35   ar
    75    33    69    1
    76    34    70    1
    77    35    71    1
