@<TRIPOS>MOLECULE
IMPHY015629
 24 24 0 0 0
SMALL
GASTEIGER

@<TRIPOS>ATOM
      1 C           3.7320    1.0000    0.0000 C.ar    1  UNL1       -0.0473
      2 C           2.8660    0.5000    0.0000 C.ar    1  UNL1       -0.0473
      3 C           4.5981   -0.5000    0.0000 C.ar    1  UNL1       -0.0473
      4 C           3.7320   -1.0000    0.0000 C.ar    1  UNL1       -0.0473
      5 C           4.5981    0.5000    0.0000 C.ar    1  UNL1       -0.0554
      6 C           2.8660   -0.5000    0.0000 C.ar    1  UNL1       -0.0554
      7 C           3.7320    2.0000    0.0000 C.3     1  UNL1       -0.0395
      8 C           2.0000    1.0000    0.0000 C.3     1  UNL1       -0.0395
      9 C           5.4641   -1.0000    0.0000 C.3     1  UNL1       -0.0395
     10 C           3.7320   -2.0000    0.0000 C.3     1  UNL1       -0.0395
     11 H           5.1350    0.8100    0.0000 H       1  UNL1        0.0623
     12 H           2.3291   -0.8100    0.0000 H       1  UNL1        0.0623
     13 H           4.3520    2.0000    0.0000 H       1  UNL1        0.0278
     14 H           3.7320    2.6200    0.0000 H       1  UNL1        0.0278
     15 H           3.1120    2.0000    0.0000 H       1  UNL1        0.0278
     16 H           2.3100    1.5369    0.0000 H       1  UNL1        0.0278
     17 H           1.4631    1.3100    0.0000 H       1  UNL1        0.0278
     18 H           1.6900    0.4631    0.0000 H       1  UNL1        0.0278
     19 H           5.1541   -1.5369    0.0000 H       1  UNL1        0.0278
     20 H           6.0010   -1.3100    0.0000 H       1  UNL1        0.0278
     21 H           5.7741   -0.4631    0.0000 H       1  UNL1        0.0278
     22 H           3.1120   -2.0000    0.0000 H       1  UNL1        0.0278
     23 H           3.7320   -2.6200    0.0000 H       1  UNL1        0.0278
     24 H           4.3520   -2.0000    0.0000 H       1  UNL1        0.0278
@<TRIPOS>BOND
     1     1     2   ar
     2     1     5   ar
     3     1     7    1
     4     2     6   ar
     5     2     8    1
     6     3     4   ar
     7     3     5   ar
     8     3     9    1
     9     4     6   ar
    10     4    10    1
    11     5    11    1
    12     6    12    1
    13     7    13    1
    14     7    14    1
    15     7    15    1
    16     8    16    1
    17     8    17    1
    18     8    18    1
    19     9    19    1
    20     9    20    1
    21     9    21    1
    22    10    22    1
    23    10    23    1
    24    10    24    1
