@<TRIPOS>MOLECULE
IMPHY005075
 23 23 0 0 0
SMALL
GASTEIGER

@<TRIPOS>ATOM
      1 O           3.3101   -2.5306    0.0000 O.3     1  UNL1       -0.4795
      2 O           5.5421    1.0675    0.0000 O.2     1  UNL1       -0.2465
      3 O           2.0780    1.0675    0.0000 O.2     1  UNL1       -0.2675
      4 OXT         4.8101   -1.6645    0.0000 O.2     1  UNL1       -0.2492
      5 N           3.8100    1.0675    0.0000 N.ar    1  UNL1       -0.2590
      6 N           2.3100   -0.7984    0.0000 N.3     1  UNL1       -0.3170
      7 N           4.6761    2.5675    0.0000 N.ar    1  UNL1       -0.3141
      8 C           3.8100    0.0675    0.0000 C.3     1  UNL1        0.0565
      9 CA          3.3100   -0.7985    0.0000 C.3     1  UNL1        0.1215
     10 C           4.6761    1.5675    0.0000 C.ar    1  UNL1        0.3294
     11 C           2.9440    1.5675    0.0000 C.ar    1  UNL1        0.2565
     12 C           3.8101   -1.6645    0.0000 C.2     1  UNL1        0.3235
     13 C           2.9440    2.5675    0.0000 C.ar    1  UNL1        0.0191
     14 C           3.8100    3.0675    0.0000 C.ar    1  UNL1        0.0115
     15 H           4.2086   -0.4074    0.0000 H       1  UNL1        0.0515
     16 H           3.2112    0.2280    0.0000 H       1  UNL1        0.0515
     17 HA          3.0000   -1.3354    0.0000 H       1  UNL1        0.0592
     18 H1          2.0000   -1.3354    0.0000 H       1  UNL1        0.1190
     19 H2          2.0000   -0.2616    0.0000 H       1  UNL1        0.1190
     20 H           5.2130    2.8775    0.0000 H       1  UNL1        0.1698
     21 H           2.4071    2.8775    0.0000 H       1  UNL1        0.0686
     22 H           3.8100    3.6875    0.0000 H       1  UNL1        0.0810
     23 H           3.6201   -3.0675    0.0000 H       1  UNL1        0.2951
@<TRIPOS>BOND
     1     1    12    1
     2     1    23    1
     3     2    10    2
     4     3    11    2
     5     4    12    2
     6     5     8    1
     7     5    10   ar
     8     5    11   ar
     9     9     6    1
    10     6    18    1
    11     6    19    1
    12     7    10   ar
    13     7    14   ar
    14     7    20    1
    15     8     9    1
    16     8    15    1
    17     8    16    1
    18     9    12    1
    19     9    17    1
    20    11    13   ar
    21    13    14   ar
    22    13    21    1
    23    14    22    1
