@<TRIPOS>MOLECULE
IMPHY002423
 52 54 0 0 0
SMALL
GASTEIGER

@<TRIPOS>ATOM
      1 O           2.5381   -1.8077    0.0000 O.3     1  UNL1       -0.3909
      2 O           6.0682   -2.7836    0.0000 O.2     1  UNL1       -0.5032
      3 O           5.1804    1.7479    0.0000 O.3     1  UNL1       -0.5031
      4 O           7.8003   -1.7836    0.0000 O.2     1  UNL1       -0.2833
      5 O           8.7045   -0.2867    0.0000 O.3     1  UNL1       -0.5056
      6 O           6.9464    2.7857    0.0000 O.3     1  UNL1       -0.5030
      7 C           5.2022   -0.2836    0.0000 C.3     1  UNL1        0.0227
      8 C           4.3083   -1.8182    0.0000 C.3     1  UNL1        0.0167
      9 C           5.2022   -1.2836    0.0000 C.2     1  UNL1       -0.0060
     10 C           4.3083    0.2511    0.0000 C.3     1  UNL1       -0.0372
     11 C           3.4022   -1.3044    0.0000 C.3     1  UNL1        0.0642
     12 C           3.4022   -0.2628    0.0000 C.3     1  UNL1       -0.0250
     13 C           6.0682    0.2164    0.0000 C.ar    1  UNL1        0.0221
     14 C           5.2022    0.7164    0.0000 C.3     1  UNL1       -0.0515
     15 C           3.8183   -2.6900    0.0000 C.3     1  UNL1       -0.0536
     16 C           4.8183   -2.6784    0.0000 C.3     1  UNL1       -0.0536
     17 C           6.0682   -1.7836    0.0000 C.2     1  UNL1        0.1649
     18 C           6.9343   -0.2836    0.0000 C.ar    1  UNL1        0.0747
     19 C           6.9343   -1.2836    0.0000 C.2     1  UNL1        0.2310
     20 C           6.0522    1.2579    0.0000 C.ar    1  UNL1        0.1635
     21 C           7.8443    0.2233    0.0000 C.ar    1  UNL1        0.1352
     22 C           7.8523    1.2648    0.0000 C.ar    1  UNL1        0.0423
     23 C           6.9502    1.7857    0.0000 C.ar    1  UNL1        0.1656
     24 C           8.7202    1.7615    0.0000 C.3     1  UNL1       -0.0144
     25 C           8.7241    2.7615    0.0000 C.3     1  UNL1       -0.0584
     26 C           9.5844    1.2582    0.0000 C.3     1  UNL1       -0.0584
     27 H           4.7129    0.7209    0.0000 H       1  UNL1        0.0278
     28 H           3.9147    0.7301    0.0000 H       1  UNL1        0.0278
     29 H           2.8647   -0.9954    0.0000 H       1  UNL1        0.0602
     30 H           3.1932    0.3209    0.0000 H       1  UNL1        0.0291
     31 H           2.7914   -0.3689    0.0000 H       1  UNL1        0.0291
     32 H           5.8222    0.7164    0.0000 H       1  UNL1        0.0241
     33 H           5.2022    1.3364    0.0000 H       1  UNL1        0.0241
     34 H           4.5822    0.7164    0.0000 H       1  UNL1        0.0241
     35 H           3.2778   -2.3862    0.0000 H       1  UNL1        0.0239
     36 H           4.2850   -2.9946    0.0000 H       1  UNL1        0.0239
     37 H           5.1344   -3.2118    0.0000 H       1  UNL1        0.0239
     38 H           5.3516   -2.3622    0.0000 H       1  UNL1        0.0239
     39 H           3.5146   -3.2305    0.0000 H       1  UNL1        0.0239
     40 H           4.3588   -2.9938    0.0000 H       1  UNL1        0.0239
     41 H           2.0000   -1.4998    0.0000 H       1  UNL1        0.2098
     42 H           6.6052   -3.0936    0.0000 H       1  UNL1        0.2923
     43 H           8.1845    2.0736    0.0000 H       1  UNL1        0.0346
     44 H           5.1733    2.3678    0.0000 H       1  UNL1        0.2923
     45 H           9.2450    0.0170    0.0000 H       1  UNL1        0.2922
     46 H           9.3441    2.7591    0.0000 H       1  UNL1        0.0235
     47 H           9.2723    0.7224    0.0000 H       1  UNL1        0.0235
     48 H          10.1201    0.9461    0.0000 H       1  UNL1        0.0235
     49 H           9.8964    1.7939    0.0000 H       1  UNL1        0.0235
     50 H           8.7265    3.3815    0.0000 H       1  UNL1        0.0235
     51 H           8.1041    2.7639    0.0000 H       1  UNL1        0.0235
     52 H           6.4082    3.0936    0.0000 H       1  UNL1        0.2923
@<TRIPOS>BOND
     1    11     1    1
     2     1    41    1
     3     2    17    1
     4     2    42    1
     5     3    20    1
     6     3    44    1
     7     4    19    2
     8     5    21    1
     9     5    45    1
    10     6    23    1
    11     6    52    1
    12     7     9    1
    13     7    10    1
    14     7    13    1
    15     7    14    1
    16     8     9    1
    17     8    11    1
    18     8    15    1
    19     8    16    1
    20     9    17    2
    21    10    12    1
    22    10    27    1
    23    10    28    1
    24    11    12    1
    25    11    29    1
    26    12    30    1
    27    12    31    1
    28    13    18   ar
    29    13    20   ar
    30    14    32    1
    31    14    33    1
    32    14    34    1
    33    15    35    1
    34    15    39    1
    35    15    40    1
    36    16    36    1
    37    16    37    1
    38    16    38    1
    39    17    19    1
    40    18    19    1
    41    18    21   ar
    42    20    23   ar
    43    21    22   ar
    44    22    23   ar
    45    22    24    1
    46    24    25    1
    47    24    26    1
    48    24    43    1
    49    25    46    1
    50    25    50    1
    51    25    51    1
    52    26    47    1
    53    26    48    1
    54    26    49    1
