@<TRIPOS>MOLECULE
IMPHY000096
 35 37 0 0 0
SMALL
GASTEIGER

@<TRIPOS>ATOM
      1 O           6.3580   -1.8017    0.0000 O.2     1  UNL1       -0.4618
      2 O           2.8660    0.2329    0.0000 O.3     1  UNL1       -0.4885
      3 O           4.5981    1.2329    0.0000 O.3     1  UNL1       -0.5027
      4 O           6.3465    1.2675    0.0000 O.2     1  UNL1       -0.2863
      5 O           2.8660   -1.7671    0.0000 O.3     1  UNL1       -0.5031
      6 O          10.7282   -0.2329    0.0000 O.3     1  UNL1       -0.5033
      7 O          10.7205    1.7671    0.0000 O.3     1  UNL1       -0.5033
      8 C           5.4641   -0.2671    0.0000 C.ar    1  UNL1        0.1097
      9 C           7.2641   -0.2463    0.0000 C.ar    1  UNL1        0.0645
     10 C           5.4641   -1.2671    0.0000 C.ar    1  UNL1        0.1456
     11 C           6.3580    0.2676    0.0000 C.ar    1  UNL1        0.2038
     12 C           4.5981    0.2329    0.0000 C.ar    1  UNL1        0.1768
     13 C           8.1282    0.2571    0.0000 C.ar    1  UNL1       -0.0076
     14 C           3.7320   -0.2671    0.0000 C.ar    1  UNL1        0.2040
     15 C           4.5981   -1.7671    0.0000 C.ar    1  UNL1        0.0267
     16 C           7.2641   -1.2879    0.0000 C.ar    1  UNL1        0.1038
     17 C           3.7320   -1.2671    0.0000 C.ar    1  UNL1        0.1657
     18 C           8.9962   -0.2396    0.0000 C.ar    1  UNL1       -0.0086
     19 C           8.1244    1.2571    0.0000 C.ar    1  UNL1       -0.0501
     20 C           9.8602    0.2638    0.0000 C.ar    1  UNL1        0.1588
     21 C           8.9884    1.7604    0.0000 C.ar    1  UNL1       -0.0160
     22 C           9.8564    1.2637    0.0000 C.ar    1  UNL1        0.1582
     23 C           2.0000   -0.2671    0.0000 C.3     1  UNL1        0.0791
     24 H           4.5981   -2.3871    0.0000 H       1  UNL1        0.0692
     25 H           7.7998   -1.6000    0.0000 H       1  UNL1        0.1037
     26 H           8.9985   -0.8596    0.0000 H       1  UNL1        0.0661
     27 H           7.5862    1.5650    0.0000 H       1  UNL1        0.0625
     28 H           8.9860    2.3804    0.0000 H       1  UNL1        0.0655
     29 H           4.0611    1.5429    0.0000 H       1  UNL1        0.2923
     30 H           2.8660   -2.3871    0.0000 H       1  UNL1        0.2923
     31 H           1.6900    0.2699    0.0000 H       1  UNL1        0.0660
     32 H           1.4631   -0.5771    0.0000 H       1  UNL1        0.0660
     33 H           2.3100   -0.8040    0.0000 H       1  UNL1        0.0660
     34 H          10.7306   -0.8529    0.0000 H       1  UNL1        0.2923
     35 H          10.7181    2.3871    0.0000 H       1  UNL1        0.2923
@<TRIPOS>BOND
     1     1    10   ar
     2     1    16   ar
     3     2    14    1
     4     2    23    1
     5     3    12    1
     6     3    29    1
     7     4    11    2
     8     5    17    1
     9     5    30    1
    10     6    20    1
    11     6    34    1
    12     7    22    1
    13     7    35    1
    14     8    10   ar
    15     8    11   ar
    16     8    12   ar
    17     9    11   ar
    18     9    13    1
    19     9    16   ar
    20    10    15   ar
    21    12    14   ar
    22    13    18   ar
    23    13    19   ar
    24    14    17   ar
    25    15    17   ar
    26    15    24    1
    27    16    25    1
    28    18    20   ar
    29    18    26    1
    30    19    21   ar
    31    19    27    1
    32    20    22   ar
    33    21    22   ar
    34    21    28    1
    35    23    31    1
    36    23    32    1
    37    23    33    1
