@<TRIPOS>MOLECULE
IMPHY015211
 35 36 0 0 0
SMALL
GASTEIGER

@<TRIPOS>ATOM
      1 O           7.2241   -1.3403    0.0000 O.3     1  UNL1       -0.4813
      2 O           4.5981    0.1944    0.0000 O.2     1  UNL1       -0.4266
      3 O           5.4641    1.6944    0.0000 O.2     1  UNL1       -0.2444
      4 C           8.1301   -0.8264    0.0000 C.3     1  UNL1        0.1235
      5 C           2.8660   -0.8056    0.0000 C.3     1  UNL1       -0.0399
      6 C           3.7320   -1.3056    0.0000 C.3     1  UNL1        0.0081
      7 C           6.3301   -0.8056    0.0000 C.ar    1  UNL1        0.1389
      8 C           4.5981   -0.8056    0.0000 C.ar    1  UNL1        0.1129
      9 C           6.3301    0.1944    0.0000 C.ar    1  UNL1        0.1009
     10 C           8.1301    0.2152    0.0000 C.2     1  UNL1       -0.0407
     11 C           5.4641   -1.3056    0.0000 C.ar    1  UNL1        0.0191
     12 C           9.1301   -0.8303    0.0000 C.3     1  UNL1       -0.0215
     13 C           8.6268   -1.6944    0.0000 C.3     1  UNL1       -0.0215
     14 C           7.2241    0.7290    0.0000 C.2     1  UNL1       -0.0444
     15 C           2.0000   -1.3056    0.0000 C.3     1  UNL1       -0.0623
     16 C           2.8660    0.1944    0.0000 C.3     1  UNL1       -0.0623
     17 C           5.4641    0.6944    0.0000 C.ar    1  UNL1        0.3477
     18 H           2.8660   -1.4256    0.0000 H       1  UNL1        0.0300
     19 H           3.3335   -1.7806    0.0000 H       1  UNL1        0.0346
     20 H           4.1306   -1.7806    0.0000 H       1  UNL1        0.0346
     21 H           8.6659    0.5273    0.0000 H       1  UNL1        0.0611
     22 H           5.4641   -1.9256    0.0000 H       1  UNL1        0.0688
     23 H           9.1277   -1.4503    0.0000 H       1  UNL1        0.0271
     24 H           9.7501   -0.8327    0.0000 H       1  UNL1        0.0271
     25 H           9.1325   -0.2103    0.0000 H       1  UNL1        0.0271
     26 H           8.0887   -2.0023    0.0000 H       1  UNL1        0.0271
     27 H           8.9347   -2.2325    0.0000 H       1  UNL1        0.0271
     28 H           9.1649   -1.3864    0.0000 H       1  UNL1        0.0271
     29 H           7.2169    1.3490    0.0000 H       1  UNL1        0.0625
     30 H           1.6900   -0.7687    0.0000 H       1  UNL1        0.0232
     31 H           1.4631   -1.6156    0.0000 H       1  UNL1        0.0232
     32 H           2.3100   -1.8426    0.0000 H       1  UNL1        0.0232
     33 H           3.4860    0.1944    0.0000 H       1  UNL1        0.0232
     34 H           2.8660    0.8144    0.0000 H       1  UNL1        0.0232
     35 H           2.2460    0.1944    0.0000 H       1  UNL1        0.0232
@<TRIPOS>BOND
     1     1     4    1
     2     1     7    1
     3     2     8   ar
     4     2    17   ar
     5     3    17    2
     6     4    10    1
     7     4    12    1
     8     4    13    1
     9     5     6    1
    10     5    15    1
    11     5    16    1
    12     5    18    1
    13     6     8    1
    14     6    19    1
    15     6    20    1
    16     7     9   ar
    17     7    11   ar
    18     8    11   ar
    19     9    14    1
    20     9    17   ar
    21    10    14    2
    22    10    21    1
    23    11    22    1
    24    12    23    1
    25    12    24    1
    26    12    25    1
    27    13    26    1
    28    13    27    1
    29    13    28    1
    30    14    29    1
    31    15    30    1
    32    15    31    1
    33    15    32    1
    34    16    33    1
    35    16    34    1
    36    16    35    1
