@<TRIPOS>MOLECULE
IMPHY006020
 71 75 0 0 0
SMALL
GASTEIGER

@<TRIPOS>ATOM
      1 O           5.1459   -2.6330    0.0000 O.3     1  UNL1       -0.3339
      2 O           5.1396    4.4396    0.0000 O.3     1  UNL1       -0.3339
      3 O           6.8779   -2.6330    0.0000 O.3     1  UNL1       -0.4532
      4 O           5.9998    2.9363    0.0000 O.3     1  UNL1       -0.4606
      5 O           5.1459   -5.6330    0.0000 O.3     1  UNL1       -0.3864
      6 O           3.4138   -4.6330    0.0000 O.3     1  UNL1       -0.3866
      7 O           2.5357    2.9496    0.0000 O.3     1  UNL1       -0.3864
      8 O           2.5434    4.9496    0.0000 O.3     1  UNL1       -0.3866
      9 O           6.8779   -4.6330    0.0000 O.3     1  UNL1       -0.3829
     10 O           4.2639    1.9430    0.0000 O.3     1  UNL1       -0.3829
     11 O           7.7440   -0.1330    0.0000 O.2     1  UNL1       -0.4507
     12 O           5.1459   -1.6329    0.0000 O.2     1  UNL1       -0.2830
     13 O           4.2417   -0.1361    0.0000 O.3     1  UNL1       -0.5058
     14 O          11.2081   -3.1330    0.0000 O.3     1  UNL1       -0.5068
     15 C           5.1459   -4.6330    0.0000 C.3     1  UNL1        0.1151
     16 C           4.2799   -4.1330    0.0000 C.3     1  UNL1        0.1096
     17 C           3.4037    3.4463    0.0000 C.3     1  UNL1        0.1151
     18 C           3.4075    4.4463    0.0000 C.3     1  UNL1        0.1096
     19 C           6.0119   -4.1330    0.0000 C.3     1  UNL1        0.1454
     20 C           4.2799   -3.1330    0.0000 C.3     1  UNL1        0.0883
     21 C           4.2678    2.9430    0.0000 C.3     1  UNL1        0.1454
     22 C           4.2755    4.9430    0.0000 C.3     1  UNL1        0.0883
     23 C           6.0119   -3.1330    0.0000 C.3     1  UNL1        0.2311
     24 C           5.1357    3.4396    0.0000 C.3     1  UNL1        0.2307
     25 C           3.4138   -2.6330    0.0000 C.3     1  UNL1       -0.0360
     26 C           4.2793    5.9430    0.0000 C.3     1  UNL1       -0.0360
     27 C           6.8779   -1.6329    0.0000 C.ar    1  UNL1        0.2138
     28 C           5.9960    1.9363    0.0000 C.ar    1  UNL1        0.1310
     29 C           6.0119   -0.1330    0.0000 C.ar    1  UNL1        0.1092
     30 C           6.0119   -1.1329    0.0000 C.ar    1  UNL1        0.2382
     31 C           6.8779    0.3670    0.0000 C.ar    1  UNL1        0.1465
     32 C           7.7440   -1.1329    0.0000 C.ar    1  UNL1        0.1809
     33 C           6.8940    1.4086    0.0000 C.ar    1  UNL1        0.0235
     34 C           5.0939    1.4155    0.0000 C.ar    1  UNL1        0.0226
     35 C           5.1019    0.3739    0.0000 C.ar    1  UNL1        0.1348
     36 C           8.6100   -1.6329    0.0000 C.ar    1  UNL1        0.0213
     37 C           9.4760   -1.1329    0.0000 C.ar    1  UNL1       -0.0475
     38 C           8.6100   -2.6330    0.0000 C.ar    1  UNL1       -0.0475
     39 C          10.3420   -1.6329    0.0000 C.ar    1  UNL1       -0.0195
     40 C           9.4760   -3.1330    0.0000 C.ar    1  UNL1       -0.0195
     41 C          10.3420   -2.6330    0.0000 C.ar    1  UNL1        0.1169
     42 H           5.6828   -4.9430    0.0000 H       1  UNL1        0.0648
     43 H           3.7429   -3.8230    0.0000 H       1  UNL1        0.0646
     44 H           2.8680    3.7584    0.0000 H       1  UNL1        0.0648
     45 H           3.4099    5.0663    0.0000 H       1  UNL1        0.0646
     46 H           6.5488   -3.8230    0.0000 H       1  UNL1        0.0683
     47 H           4.2799   -2.5130    0.0000 H       1  UNL1        0.0621
     48 H           3.7296    2.6350    0.0000 H       1  UNL1        0.0683
     49 H           4.8136    5.2509    0.0000 H       1  UNL1        0.0621
     50 H           6.0119   -2.5130    0.0000 H       1  UNL1        0.1084
     51 H           5.1333    2.8196    0.0000 H       1  UNL1        0.1084
     52 H           3.7238   -2.0960    0.0000 H       1  UNL1        0.0255
     53 H           2.8769   -2.3230    0.0000 H       1  UNL1        0.0255
     54 H           3.1038   -3.1699    0.0000 H       1  UNL1        0.0255
     55 H           4.8993    5.9406    0.0000 H       1  UNL1        0.0255
     56 H           4.2817    6.5630    0.0000 H       1  UNL1        0.0255
     57 H           3.6593    5.9453    0.0000 H       1  UNL1        0.0255
     58 H           4.6090   -5.9430    0.0000 H       1  UNL1        0.2100
     59 H           2.8769   -4.3229    0.0000 H       1  UNL1        0.2100
     60 H           2.0000    3.2617    0.0000 H       1  UNL1        0.2100
     61 H           2.5458    5.5696    0.0000 H       1  UNL1        0.2100
     62 H           6.8779   -5.2530    0.0000 H       1  UNL1        0.2102
     63 H           3.7258    1.6351    0.0000 H       1  UNL1        0.2102
     64 H           7.4345    1.7123    0.0000 H       1  UNL1        0.0691
     65 H           4.5558    1.7234    0.0000 H       1  UNL1        0.0691
     66 H           9.4760   -0.5130    0.0000 H       1  UNL1        0.0626
     67 H           8.0730   -2.9430    0.0000 H       1  UNL1        0.0626
     68 H           3.7012    0.1677    0.0000 H       1  UNL1        0.2922
     69 H          10.8790   -1.3230    0.0000 H       1  UNL1        0.0654
     70 H           9.4760   -3.7530    0.0000 H       1  UNL1        0.0654
     71 H          11.7450   -2.8230    0.0000 H       1  UNL1        0.2921
@<TRIPOS>BOND
     1     1    20    1
     2     1    23    1
     3     2    22    1
     4     2    24    1
     5    23     3    1
     6     3    27    1
     7    24     4    1
     8     4    28    1
     9    15     5    1
    10     5    58    1
    11    16     6    1
    12     6    59    1
    13    17     7    1
    14     7    60    1
    15    18     8    1
    16     8    61    1
    17    19     9    1
    18     9    62    1
    19    21    10    1
    20    10    63    1
    21    11    31   ar
    22    11    32   ar
    23    12    30    2
    24    13    35    1
    25    13    68    1
    26    14    41    1
    27    14    71    1
    28    15    16    1
    29    15    19    1
    30    15    42    1
    31    16    20    1
    32    16    43    1
    33    17    18    1
    34    17    21    1
    35    17    44    1
    36    18    22    1
    37    18    45    1
    38    19    23    1
    39    19    46    1
    40    20    25    1
    41    20    47    1
    42    21    24    1
    43    21    48    1
    44    22    26    1
    45    22    49    1
    46    23    50    1
    47    24    51    1
    48    25    52    1
    49    25    53    1
    50    25    54    1
    51    26    55    1
    52    26    56    1
    53    26    57    1
    54    27    30   ar
    55    27    32   ar
    56    28    33   ar
    57    28    34   ar
    58    29    30   ar
    59    29    31   ar
    60    29    35   ar
    61    31    33   ar
    62    32    36    1
    63    33    64    1
    64    34    35   ar
    65    34    65    1
    66    36    37   ar
    67    36    38   ar
    68    37    39   ar
    69    37    66    1
    70    38    40   ar
    71    38    67    1
    72    39    41   ar
    73    39    69    1
    74    40    41   ar
    75    40    70    1
