@<TRIPOS>MOLECULE
IMPHY004734
 55 58 0 0 0
SMALL
GASTEIGER

@<TRIPOS>ATOM
      1 O           3.7702    1.5784    0.0000 O.3     1  UNL1       -0.4869
      2 O           7.3062    1.5506    0.0000 O.3     1  UNL1       -0.4808
      3 O           3.7817   -1.4909    0.0000 O.2     1  UNL1       -0.2914
      4 O           5.5301   -1.4563    0.0000 O.3     1  UNL1       -0.5052
      5 O           8.9942    1.5437    0.0000 O.3     1  UNL1       -0.4775
      6 O           7.2622    0.5437    0.0000 O.2     1  UNL1       -0.2458
      7 C           2.8641    0.0229    0.0000 C.3     1  UNL1        0.0562
      8 C           2.8641    1.0646    0.0000 C.3     1  UNL1        0.1070
      9 C           4.6641    1.0437    0.0000 C.ar    1  UNL1        0.1455
     10 C           4.6641    0.0437    0.0000 C.ar    1  UNL1        0.1021
     11 C           5.5301    1.5437    0.0000 C.ar    1  UNL1        0.0597
     12 C           3.7702   -0.4909    0.0000 C.2     1  UNL1        0.1765
     13 C           7.3142    2.5922    0.0000 C.3     1  UNL1        0.1235
     14 C           6.3961    1.0437    0.0000 C.ar    1  UNL1        0.1436
     15 C           6.3961    0.0437    0.0000 C.ar    1  UNL1        0.0675
     16 C           5.5301   -0.4563    0.0000 C.ar    1  UNL1        0.1421
     17 C           2.0000   -0.4804    0.0000 C.3     1  UNL1       -0.0519
     18 C           5.5141    2.5852    0.0000 C.2     1  UNL1       -0.0478
     19 C           2.0000    1.5679    0.0000 C.3     1  UNL1       -0.0271
     20 C           6.4121    3.1130    0.0000 C.2     1  UNL1       -0.0408
     21 C           7.8175    3.4563    0.0000 C.3     1  UNL1       -0.0215
     22 C           8.3142    2.5883    0.0000 C.3     1  UNL1       -0.0215
     23 C           7.2622   -0.4563    0.0000 C.2     1  UNL1        0.0031
     24 C           7.2622   -1.4563    0.0000 C.ar    1  UNL1       -0.0169
     25 C           8.1282    0.0437    0.0000 C.2     1  UNL1        0.0308
     26 C           6.3961   -1.9563    0.0000 C.ar    1  UNL1       -0.0540
     27 C           8.1282   -1.9563    0.0000 C.ar    1  UNL1       -0.0540
     28 C           8.1282    1.0437    0.0000 C.2     1  UNL1        0.3302
     29 C           6.3961   -2.9563    0.0000 C.ar    1  UNL1       -0.0612
     30 C           8.1282   -2.9563    0.0000 C.ar    1  UNL1       -0.0612
     31 C           7.2622   -3.4563    0.0000 C.ar    1  UNL1       -0.0617
     32 H           2.3266    0.3319    0.0000 H       1  UNL1        0.0414
     33 H           2.8677    1.6845    0.0000 H       1  UNL1        0.0737
     34 H           1.6879    0.0553    0.0000 H       1  UNL1        0.0238
     35 H           1.4643   -0.7925    0.0000 H       1  UNL1        0.0238
     36 H           2.3121   -1.0162    0.0000 H       1  UNL1        0.0238
     37 H           4.9736    2.8890    0.0000 H       1  UNL1        0.0624
     38 H           2.3121    2.1036    0.0000 H       1  UNL1        0.0265
     39 H           1.4643    1.8800    0.0000 H       1  UNL1        0.0265
     40 H           1.6879    1.0321    0.0000 H       1  UNL1        0.0265
     41 H           6.4097    3.7330    0.0000 H       1  UNL1        0.0611
     42 H           8.3532    3.1442    0.0000 H       1  UNL1        0.0271
     43 H           8.1296    3.9920    0.0000 H       1  UNL1        0.0271
     44 H           7.2818    3.7683    0.0000 H       1  UNL1        0.0271
     45 H           8.3118    1.9683    0.0000 H       1  UNL1        0.0271
     46 H           8.9342    2.5859    0.0000 H       1  UNL1        0.0271
     47 H           8.3166    3.2083    0.0000 H       1  UNL1        0.0271
     48 H           4.9932   -1.7663    0.0000 H       1  UNL1        0.2922
     49 H           8.6651   -0.2663    0.0000 H       1  UNL1        0.0695
     50 H           5.8592   -1.6463    0.0000 H       1  UNL1        0.0624
     51 H           8.6651   -1.6463    0.0000 H       1  UNL1        0.0624
     52 H           5.8592   -3.2663    0.0000 H       1  UNL1        0.0618
     53 H           8.6651   -3.2663    0.0000 H       1  UNL1        0.0618
     54 H           7.2622   -4.0763    0.0000 H       1  UNL1        0.0618
     55 H           9.5312    1.2337    0.0000 H       1  UNL1        0.2954
@<TRIPOS>BOND
     1     1     8    1
     2     1     9    1
     3     2    13    1
     4     2    14    1
     5     3    12    2
     6     4    16    1
     7     4    48    1
     8     5    28    1
     9     5    55    1
    10     6    28    2
    11     7     8    1
    12     7    12    1
    13     7    17    1
    14     7    32    1
    15     8    19    1
    16     8    33    1
    17     9    10   ar
    18     9    11   ar
    19    10    12    1
    20    10    16   ar
    21    11    14   ar
    22    11    18    1
    23    13    20    1
    24    13    21    1
    25    13    22    1
    26    14    15   ar
    27    15    16   ar
    28    15    23    1
    29    17    34    1
    30    17    35    1
    31    17    36    1
    32    18    20    2
    33    18    37    1
    34    19    38    1
    35    19    39    1
    36    19    40    1
    37    20    41    1
    38    21    42    1
    39    21    43    1
    40    21    44    1
    41    22    45    1
    42    22    46    1
    43    22    47    1
    44    23    24    1
    45    23    25    2
    46    24    26   ar
    47    24    27   ar
    48    25    28    1
    49    25    49    1
    50    26    29   ar
    51    26    50    1
    52    27    30   ar
    53    27    51    1
    54    29    31   ar
    55    29    52    1
    56    30    31   ar
    57    30    53    1
    58    31    54    1
