@<TRIPOS>MOLECULE
IMPHY006899
 78 83 0 0 0
SMALL
GASTEIGER

@<TRIPOS>ATOM
      1 O           8.4638    1.4900    0.0000 O.3     1  UNL1       -0.3549
      2 O           7.0539   -0.2773    0.0000 O.3     1  UNL1       -0.4760
      3 O          11.0516   -0.0453    0.0000 O.2     1  UNL1       -0.2935
      4 O           7.0539   -3.0397    0.0000 O.2     1  UNL1       -0.2866
      5 O           3.9040   -0.1554    0.0000 O.3     1  UNL1       -0.4811
      6 O           5.5276   -3.0397    0.0000 O.3     1  UNL1       -0.5052
      7 O           9.6573    2.9121    0.0000 O.3     1  UNL1       -0.3907
      8 C           7.8170   -0.7179    0.0000 C.3     1  UNL1        0.1800
      9 C           8.5801   -0.2773    0.0000 C.3     1  UNL1        0.0360
     10 C           8.6008    0.4864    0.0000 C.3     1  UNL1        0.1753
     11 C           9.2275    0.7409    0.0000 C.3     1  UNL1        0.0723
     12 C           9.3433   -0.7179    0.0000 C.3     1  UNL1       -0.0304
     13 C           9.3433   -1.5991    0.0000 C.3     1  UNL1        0.0399
     14 C           7.8170   -1.5991    0.0000 C.2     1  UNL1        0.0435
     15 C          10.0891   -0.3165    0.0000 C.2     1  UNL1        0.1762
     16 C           8.5801   -2.0397    0.0000 C.2     1  UNL1       -0.0630
     17 C           7.6251    0.7052    0.0000 C.3     1  UNL1        0.0060
     18 C           9.9641    1.4172    0.0000 C.3     1  UNL1       -0.0356
     19 C          10.2274    0.7506    0.0000 C.3     1  UNL1       -0.0356
     20 C           7.0539   -2.0397    0.0000 C.2     1  UNL1        0.1999
     21 C           6.2907   -0.7179    0.0000 C.ar    1  UNL1        0.1433
     22 C           6.2907   -1.5991    0.0000 C.ar    1  UNL1        0.1061
     23 C           7.3267    1.6597    0.0000 C.2     1  UNL1       -0.0796
     24 C           5.5276   -0.2773    0.0000 C.ar    1  UNL1        0.0412
     25 C           5.5276   -2.0397    0.0000 C.ar    1  UNL1        0.1418
     26 C           8.0041    2.3953    0.0000 C.2     1  UNL1       -0.0514
     27 C           4.7644   -0.7179    0.0000 C.ar    1  UNL1        0.1393
     28 C           4.7644   -1.5991    0.0000 C.ar    1  UNL1        0.0591
     29 C           5.5276    0.7227    0.0000 C.3     1  UNL1       -0.0023
     30 C           8.9799    2.1764    0.0000 C.3     1  UNL1        0.0650
     31 C           7.7058    3.3497    0.0000 C.3     1  UNL1       -0.0416
     32 C           3.9040   -2.1616    0.0000 C.2     1  UNL1       -0.0478
     33 C           2.9999   -0.6446    0.0000 C.3     1  UNL1        0.1235
     34 C           4.6616    1.2227    0.0000 C.2     1  UNL1       -0.0807
     35 C           2.9999   -1.6725    0.0000 C.2     1  UNL1       -0.0408
     36 C           2.0000   -0.6307    0.0000 C.3     1  UNL1       -0.0215
     37 C           2.5120    0.2283    0.0000 C.3     1  UNL1       -0.0215
     38 C           4.6615    2.2227    0.0000 C.2     1  UNL1       -0.0793
     39 C           3.7955    2.7226    0.0000 C.3     1  UNL1       -0.0440
     40 C           5.5276    2.7227    0.0000 C.3     1  UNL1       -0.0440
     41 H           9.3479    0.0873    0.0000 H       1  UNL1        0.0372
     42 H           9.9538   -0.8256    0.0000 H       1  UNL1        0.0280
     43 H           9.5553   -0.1353    0.0000 H       1  UNL1        0.0280
     44 H           9.9434   -2.2011    0.0000 H       1  UNL1        0.0421
     45 H           8.5801   -2.6597    0.0000 H       1  UNL1        0.0584
     46 H           7.0102    0.6258    0.0000 H       1  UNL1        0.0341
     47 H           7.5965    0.0859    0.0000 H       1  UNL1        0.0341
     48 H          10.2334    0.1307    0.0000 H       1  UNL1        0.0257
     49 H          10.8474    0.7566    0.0000 H       1  UNL1        0.0257
     50 H          10.2214    1.3706    0.0000 H       1  UNL1        0.0257
     51 H          10.3834    0.9605    0.0000 H       1  UNL1        0.0257
     52 H          10.4208    1.8366    0.0000 H       1  UNL1        0.0257
     53 H           9.5448    1.8739    0.0000 H       1  UNL1        0.0257
     54 H           6.7217    1.7953    0.0000 H       1  UNL1        0.0573
     55 H           6.1382    0.6150    0.0000 H       1  UNL1        0.0358
     56 H           5.7396    1.3053    0.0000 H       1  UNL1        0.0358
     57 H           8.7412    1.6042    0.0000 H       1  UNL1        0.0604
     58 H           9.5020    1.8420    0.0000 H       1  UNL1        0.0604
     59 H           8.2975    3.5347    0.0000 H       1  UNL1        0.0275
     60 H           7.5208    3.9415    0.0000 H       1  UNL1        0.0275
     61 H           7.1140    3.1648    0.0000 H       1  UNL1        0.0275
     62 H           3.9298   -2.7811    0.0000 H       1  UNL1        0.0624
     63 H           4.9906   -3.3497    0.0000 H       1  UNL1        0.2922
     64 H           4.1246    0.9127    0.0000 H       1  UNL1        0.0575
     65 H           2.4673   -1.9899    0.0000 H       1  UNL1        0.0611
     66 H           3.0531    0.5308    0.0000 H       1  UNL1        0.0271
     67 H           2.2094    0.7695    0.0000 H       1  UNL1        0.0271
     68 H           1.9708   -0.0742    0.0000 H       1  UNL1        0.0271
     69 H           2.0086   -0.0108    0.0000 H       1  UNL1        0.0271
     70 H           1.3801   -0.6221    0.0000 H       1  UNL1        0.0271
     71 H           1.9914   -1.2506    0.0000 H       1  UNL1        0.0271
     72 H          10.2622    2.7764    0.0000 H       1  UNL1        0.2098
     73 H           5.8376    2.1857    0.0000 H       1  UNL1        0.0274
     74 H           6.0645    3.0327    0.0000 H       1  UNL1        0.0274
     75 H           5.2176    3.2596    0.0000 H       1  UNL1        0.0274
     76 H           4.1055    3.2596    0.0000 H       1  UNL1        0.0274
     77 H           3.2586    3.0326    0.0000 H       1  UNL1        0.0274
     78 H           3.4855    2.1857    0.0000 H       1  UNL1        0.0274
@<TRIPOS>BOND
     1     1    10    1
     2     1    11    1
     3     8     2    1
     4     2    21    1
     5     3    15    2
     6     4    20    2
     7     5    27    1
     8     5    33    1
     9     6    25    1
    10     6    63    1
    11     7    30    1
    12     7    72    1
    13     8     9    1
    14     8    10    1
    15     8    14    1
    16     9    11    1
    17     9    12    1
    18     9    41    1
    19    10    15    1
    20    10    17    1
    21    11    18    1
    22    11    19    1
    23    12    13    1
    24    12    42    1
    25    12    43    1
    26    13    15    1
    27    13    16    1
    28    13    44    1
    29    14    16    2
    30    14    20    1
    31    16    45    1
    32    17    23    1
    33    17    46    1
    34    17    47    1
    35    18    51    1
    36    18    52    1
    37    18    53    1
    38    19    48    1
    39    19    49    1
    40    19    50    1
    41    20    22    1
    42    21    22   ar
    43    21    24   ar
    44    22    25   ar
    45    23    26    2
    46    23    54    1
    47    24    27   ar
    48    24    29    1
    49    25    28   ar
    50    26    30    1
    51    26    31    1
    52    27    28   ar
    53    28    32    1
    54    29    34    1
    55    29    55    1
    56    29    56    1
    57    30    57    1
    58    30    58    1
    59    31    59    1
    60    31    60    1
    61    31    61    1
    62    32    35    2
    63    32    62    1
    64    33    35    1
    65    33    36    1
    66    33    37    1
    67    34    38    2
    68    34    64    1
    69    35    65    1
    70    36    69    1
    71    36    70    1
    72    36    71    1
    73    37    66    1
    74    37    67    1
    75    37    68    1
    76    38    39    1
    77    38    40    1
    78    39    76    1
    79    39    77    1
    80    39    78    1
    81    40    73    1
    82    40    74    1
    83    40    75    1
