@<TRIPOS>MOLECULE
IMPHY000300
 16 15 0 0 0
SMALL
GASTEIGER

@<TRIPOS>ATOM
      1 O           6.0010    0.4400    0.0000 O.3     1  UNL1       -0.4806
      2 O           5.1350   -1.0600    0.0000 O.2     1  UNL1       -0.2510
      3 N           2.5369    0.4400    0.0000 N.3     1  UNL1       -0.3270
      4 C           3.4030   -0.0600    0.0000 C.3     1  UNL1        0.0121
      5 C           4.2690    0.4400    0.0000 C.3     1  UNL1        0.0597
      6 C           3.4030   -1.0600    0.0000 C.3     1  UNL1       -0.0494
      7 C           5.1350   -0.0600    0.0000 C.2     1  UNL1        0.3062
      8 H           3.4030    0.7900    0.0000 H       1  UNL1        0.0461
      9 H           4.6675    0.9149    0.0000 H       1  UNL1        0.0393
     10 H           3.8705    0.9149    0.0000 H       1  UNL1        0.0393
     11 H           2.7830   -1.0600    0.0000 H       1  UNL1        0.0245
     12 H           3.4030   -1.6800    0.0000 H       1  UNL1        0.0245
     13 H           4.0230   -1.0600    0.0000 H       1  UNL1        0.0245
     14 H           2.0000    0.1300    0.0000 H       1  UNL1        0.1185
     15 H           2.5369    1.0600    0.0000 H       1  UNL1        0.1185
     16 H           6.5380    0.1300    0.0000 H       1  UNL1        0.2951
@<TRIPOS>BOND
     1     1     7    1
     2     1    16    1
     3     2     7    2
     4     3     4    1
     5     3    14    1
     6     3    15    1
     7     4     5    1
     8     4     6    1
     9     4     8    1
    10     5     7    1
    11     5     9    1
    12     5    10    1
    13     6    11    1
    14     6    12    1
    15     6    13    1
