@<TRIPOS>MOLECULE
IMPHY010197
 61 65 0 0 0
SMALL
GASTEIGER

@<TRIPOS>ATOM
      1 O           7.9174   -1.7383    0.0000 O.3     1  UNL1       -0.3877
      2 O           2.5405   -0.6991    0.0000 O.3     1  UNL1       -0.3892
      3 O           2.5244   -2.7907    0.0000 O.3     1  UNL1       -0.3892
      4 O           4.4210    0.2614    0.0000 O.2     1  UNL1       -0.3004
      5 O           9.1771    3.1349    0.0000 O.3     1  UNL1       -0.4571
      6 O          10.9377    3.4107    0.0000 O.2     1  UNL1       -0.2456
      7 C           7.9174   -0.7383    0.0000 C.3     1  UNL1        0.0751
      8 C           7.0514   -1.2383    0.0000 C.3     1  UNL1       -0.0079
      9 C           7.9174    0.2617    0.0000 C.3     1  UNL1        0.0036
     10 C           6.1854   -0.7383    0.0000 C.3     1  UNL1       -0.0231
     11 C           5.2754   -1.2452    0.0000 C.3     1  UNL1        0.0344
     12 C           8.8637    0.5664    0.0000 C.3     1  UNL1       -0.0081
     13 C           7.0514    0.7617    0.0000 C.3     1  UNL1       -0.0442
     14 C           6.1854    0.2617    0.0000 C.3     1  UNL1       -0.0484
     15 C           5.2674   -2.2868    0.0000 C.3     1  UNL1       -0.0262
     16 C           8.8637   -1.0431    0.0000 C.3     1  UNL1       -0.0226
     17 C           7.0675   -2.2798    0.0000 C.3     1  UNL1       -0.0470
     18 C           9.4473   -0.2383    0.0000 C.3     1  UNL1       -0.0432
     19 C           6.1694   -2.8076    0.0000 C.3     1  UNL1       -0.0489
     20 C           4.3486   -0.6811    0.0000 C.3     1  UNL1       -0.0118
     21 C           7.9174    1.2617    0.0000 C.3     1  UNL1       -0.0564
     22 C           4.3319   -2.8365    0.0000 C.3     1  UNL1       -0.0207
     23 C           3.4007   -1.2090    0.0000 C.3     1  UNL1        0.0820
     24 C           3.3923   -2.2940    0.0000 C.3     1  UNL1        0.0814
     25 C           9.1743    1.5169    0.0000 C.2     1  UNL1       -0.0222
     26 C           5.2831   -0.2452    0.0000 C.2     1  UNL1        0.1270
     27 C           8.5879    2.3270    0.0000 C.3     1  UNL1        0.1147
     28 C          10.1259    1.8243    0.0000 C.2     1  UNL1        0.0252
     29 C          10.1276    2.8243    0.0000 C.2     1  UNL1        0.3323
     30 H           7.7908   -1.6576    0.0000 H       1  UNL1        0.0332
     31 H           6.9215   -0.3133    0.0000 H       1  UNL1        0.0314
     32 H           9.4762    0.6626    0.0000 H       1  UNL1        0.0353
     33 H           7.4500    1.2366    0.0000 H       1  UNL1        0.0272
     34 H           6.6529    1.2366    0.0000 H       1  UNL1        0.0272
     35 H           5.9733    0.8443    0.0000 H       1  UNL1        0.0268
     36 H           5.5748    0.1540    0.0000 H       1  UNL1        0.0268
     37 H           5.2706   -3.1368    0.0000 H       1  UNL1        0.0311
     38 H           8.6126   -1.6100    0.0000 H       1  UNL1        0.0293
     39 H           9.4010   -1.3523    0.0000 H       1  UNL1        0.0293
     40 H           7.2855   -2.8602    0.0000 H       1  UNL1        0.0269
     41 H           7.6766   -2.1644    0.0000 H       1  UNL1        0.0269
     42 H           9.9081   -0.6531    0.0000 H       1  UNL1        0.0272
     43 H           9.9081    0.1764    0.0000 H       1  UNL1        0.0272
     44 H           5.7721   -3.2836    0.0000 H       1  UNL1        0.0268
     45 H           6.5704   -3.2805    0.0000 H       1  UNL1        0.0268
     46 H           4.7568   -0.2144    0.0000 H       1  UNL1        0.0300
     47 H           3.9586   -0.1991    0.0000 H       1  UNL1        0.0300
     48 H           8.5374    1.2617    0.0000 H       1  UNL1        0.0236
     49 H           7.9174    1.8817    0.0000 H       1  UNL1        0.0236
     50 H           7.2974    1.2617    0.0000 H       1  UNL1        0.0236
     51 H           3.9346   -3.3125    0.0000 H       1  UNL1        0.0294
     52 H           4.7329   -3.3094    0.0000 H       1  UNL1        0.0294
     53 H           3.4090   -0.5891    0.0000 H       1  UNL1        0.0619
     54 H           8.4544   -2.0483    0.0000 H       1  UNL1        0.2102
     55 H           3.3911   -2.9140    0.0000 H       1  UNL1        0.0619
     56 H           5.2879    0.3748    0.0000 H       1  UNL1        0.1032
     57 H           8.1279    2.7426    0.0000 H       1  UNL1        0.0746
     58 H           8.1265    1.9129    0.0000 H       1  UNL1        0.0746
     59 H          10.6269    1.4590    0.0000 H       1  UNL1        0.0689
     60 H           2.0000   -1.0028    0.0000 H       1  UNL1        0.2099
     61 H           2.5220   -3.4107    0.0000 H       1  UNL1        0.2099
@<TRIPOS>BOND
     1     7     1    1
     2     1    54    1
     3    23     2    1
     4     2    60    1
     5    24     3    1
     6     3    61    1
     7     4    26    2
     8     5    27    1
     9     5    29    1
    10     6    29    2
    11     7     8    1
    12     7     9    1
    13     7    16    1
    14     8    10    1
    15     8    17    1
    16     8    30    1
    17     9    12    1
    18     9    13    1
    19     9    21    1
    20    10    11    1
    21    10    14    1
    22    10    31    1
    23    11    15    1
    24    11    20    1
    25    11    26    1
    26    12    18    1
    27    12    25    1
    28    12    32    1
    29    13    14    1
    30    13    33    1
    31    13    34    1
    32    14    35    1
    33    14    36    1
    34    15    19    1
    35    15    22    1
    36    15    37    1
    37    16    18    1
    38    16    38    1
    39    16    39    1
    40    17    19    1
    41    17    40    1
    42    17    41    1
    43    18    42    1
    44    18    43    1
    45    19    44    1
    46    19    45    1
    47    20    23    1
    48    20    46    1
    49    20    47    1
    50    21    48    1
    51    21    49    1
    52    21    50    1
    53    22    24    1
    54    22    51    1
    55    22    52    1
    56    23    24    1
    57    23    53    1
    58    24    55    1
    59    25    27    1
    60    25    28    2
    61    26    56    1
    62    27    57    1
    63    27    58    1
    64    28    29    1
    65    28    59    1
