@<TRIPOS>MOLECULE
IMPHY007846
 99 104 0 0 0
SMALL
GASTEIGER

@<TRIPOS>ATOM
      1 O          11.5263   -1.0000    0.0000 O.3     1  UNL1       -0.3313
      2 O           8.0622   -2.0000    0.0000 O.3     1  UNL1       -0.3394
      3 O           9.7942   -2.0000    0.0000 O.3     1  UNL1       -0.3460
      4 O           9.7942    1.0000    0.0000 O.3     1  UNL1       -0.3865
      5 O          11.5263    2.0000    0.0000 O.3     1  UNL1       -0.3864
      6 O           9.7942   -4.0000    0.0000 O.3     1  UNL1       -0.3841
      7 O           8.0622   -5.0000    0.0000 O.3     1  UNL1       -0.3864
      8 O          13.2583   -1.0000    0.0000 O.3     1  UNL1       -0.4515
      9 O           6.3301   -4.0000    0.0000 O.3     1  UNL1       -0.3864
     10 O          13.2583    1.0000    0.0000 O.3     1  UNL1       -0.3829
     11 O           6.3301   -1.0000    0.0000 O.3     1  UNL1       -0.4589
     12 O          15.8564   -0.5000    0.0000 O.2     1  UNL1       -0.1997
     13 O           4.5981   -1.0000    0.0000 O.2     1  UNL1       -0.2456
     14 O          14.1026    2.5315    0.0000 O.3     1  UNL1       -0.5057
     15 O          17.6424    2.5451    0.0000 O.3     1  UNL1       -0.5063
     16 O          13.2583   -4.0000    0.0000 O.3     1  UNL1       -0.5033
     17 O          14.9904   -5.0000    0.0000 O.3     1  UNL1       -0.5033
     18 O           2.8660    4.0000    0.0000 O.3     1  UNL1       -0.4913
     19 O           6.3301    4.0000    0.0000 O.3     1  UNL1       -0.4913
     20 O           4.5981    5.0000    0.0000 O.3     1  UNL1       -0.5009
     21 C          10.6603   -0.5000    0.0000 C.3     1  UNL1        0.1144
     22 C          10.6603    0.5000    0.0000 C.3     1  UNL1        0.1120
     23 C          11.5263    1.0000    0.0000 C.3     1  UNL1        0.1152
     24 C           8.9282   -3.5000    0.0000 C.3     1  UNL1        0.1341
     25 C           8.0622   -4.0000    0.0000 C.3     1  UNL1        0.1141
     26 C           8.9282   -2.5000    0.0000 C.3     1  UNL1        0.1881
     27 C           7.1962   -3.5000    0.0000 C.3     1  UNL1        0.1129
     28 C          12.3923    0.5000    0.0000 C.3     1  UNL1        0.1454
     29 C           7.1962   -2.5000    0.0000 C.3     1  UNL1        0.1240
     30 C           9.7942   -1.0000    0.0000 C.3     1  UNL1        0.0796
     31 C          12.3923   -0.5000    0.0000 C.3     1  UNL1        0.2312
     32 C           6.3301   -2.0000    0.0000 C.3     1  UNL1        0.1215
     33 C          14.1244   -0.5000    0.0000 C.ar    1  UNL1        0.2288
     34 C          14.9904   -1.0000    0.0000 C.ar    1  UNL1        0.4046
     35 C          14.1244    0.5000    0.0000 C.ar    1  UNL1        0.0093
     36 C           5.4641   -0.5000    0.0000 C.2     1  UNL1        0.3320
     37 C          14.9904    1.0000    0.0000 C.ar    1  UNL1        0.1241
     38 C          14.9904   -2.0000    0.0000 C.ar    1  UNL1        0.0865
     39 C          15.8564    0.5000    0.0000 C.ar    1  UNL1        0.3708
     40 C          14.9743    2.0415    0.0000 C.ar    1  UNL1        0.1366
     41 C           5.4641    0.5000    0.0000 C.2     1  UNL1        0.0231
     42 C          16.7664    1.0068    0.0000 C.ar    1  UNL1        0.0847
     43 C          14.1244   -2.5000    0.0000 C.ar    1  UNL1       -0.0003
     44 C          15.8564   -2.5000    0.0000 C.ar    1  UNL1       -0.0418
     45 C          15.8724    2.5693    0.0000 C.ar    1  UNL1        0.0225
     46 C          16.7744    2.0484    0.0000 C.ar    1  UNL1        0.1293
     47 C           4.5981    1.0000    0.0000 C.2     1  UNL1       -0.0476
     48 C          14.1244   -3.5000    0.0000 C.ar    1  UNL1        0.1591
     49 C          15.8564   -3.5000    0.0000 C.ar    1  UNL1       -0.0157
     50 C          14.9904   -4.0000    0.0000 C.ar    1  UNL1        0.1583
     51 C           4.5981    2.0000    0.0000 C.ar    1  UNL1       -0.0177
     52 C           5.4641    2.5000    0.0000 C.ar    1  UNL1       -0.0089
     53 C           3.7320    2.5000    0.0000 C.ar    1  UNL1       -0.0089
     54 C           3.7320    3.5000    0.0000 C.ar    1  UNL1        0.1655
     55 C           5.4641    3.5000    0.0000 C.ar    1  UNL1        0.1655
     56 C           4.5981    4.0000    0.0000 C.ar    1  UNL1        0.2010
     57 C           2.0000    3.5000    0.0000 C.3     1  UNL1        0.0790
     58 C           6.3301    5.0000    0.0000 C.3     1  UNL1        0.0790
     59 H          10.6603   -1.1200    0.0000 H       1  UNL1        0.0647
     60 H          10.6603    1.1200    0.0000 H       1  UNL1        0.0647
     61 H          12.0632    1.3100    0.0000 H       1  UNL1        0.0648
     62 H           9.4651   -3.1900    0.0000 H       1  UNL1        0.0671
     63 H           7.5252   -4.3100    0.0000 H       1  UNL1        0.0648
     64 H           8.9282   -1.8800    0.0000 H       1  UNL1        0.0937
     65 H           6.6592   -3.1900    0.0000 H       1  UNL1        0.0647
     66 H          12.9292    0.1900    0.0000 H       1  UNL1        0.0683
     67 H           7.1962   -1.8800    0.0000 H       1  UNL1        0.0658
     68 H           9.5822   -0.4174    0.0000 H       1  UNL1        0.0587
     69 H           9.1836   -1.1077    0.0000 H       1  UNL1        0.0587
     70 H          12.3923   -1.1200    0.0000 H       1  UNL1        0.1084
     71 H           5.7196   -1.8923    0.0000 H       1  UNL1        0.0725
     72 H           6.1181   -2.5826    0.0000 H       1  UNL1        0.0725
     73 H           9.7942    1.6200    0.0000 H       1  UNL1        0.2100
     74 H          10.9893    2.3100    0.0000 H       1  UNL1        0.2100
     75 H          10.3312   -3.6900    0.0000 H       1  UNL1        0.2101
     76 H           7.5252   -5.3100    0.0000 H       1  UNL1        0.2100
     77 H           5.7932   -3.6900    0.0000 H       1  UNL1        0.2100
     78 H          13.2583    1.6200    0.0000 H       1  UNL1        0.2102
     79 H          13.5874    0.8100    0.0000 H       1  UNL1        0.0667
     80 H           6.0010    0.8100    0.0000 H       1  UNL1        0.0689
     81 H          17.2997    0.6907    0.0000 H       1  UNL1        0.0749
     82 H          13.5874   -2.1900    0.0000 H       1  UNL1        0.0664
     83 H          16.3933   -2.1900    0.0000 H       1  UNL1        0.0628
     84 H          15.8700    3.1893    0.0000 H       1  UNL1        0.0691
     85 H           4.0611    0.6900    0.0000 H       1  UNL1        0.0626
     86 H          16.3933   -3.8100    0.0000 H       1  UNL1        0.0655
     87 H          14.0954    3.1514    0.0000 H       1  UNL1        0.2922
     88 H          17.6448    3.1651    0.0000 H       1  UNL1        0.2921
     89 H          13.2583   -4.6200    0.0000 H       1  UNL1        0.2923
     90 H           6.0010    2.1900    0.0000 H       1  UNL1        0.0661
     91 H           3.1951    2.1900    0.0000 H       1  UNL1        0.0661
     92 H          15.5273   -5.3100    0.0000 H       1  UNL1        0.2923
     93 H           4.0611    5.3100    0.0000 H       1  UNL1        0.2924
     94 H           1.6900    4.0369    0.0000 H       1  UNL1        0.0660
     95 H           1.4631    3.1900    0.0000 H       1  UNL1        0.0660
     96 H           2.3100    2.9631    0.0000 H       1  UNL1        0.0660
     97 H           6.9501    5.0000    0.0000 H       1  UNL1        0.0660
     98 H           6.3301    5.6200    0.0000 H       1  UNL1        0.0660
     99 H           5.7101    5.0000    0.0000 H       1  UNL1        0.0660
@<TRIPOS>UNITY_ATOM_ATTR
12 1
charge 1
@<TRIPOS>BOND
     1     1    21    1
     2     1    31    1
     3     2    26    1
     4     2    29    1
     5    26     3    1
     6     3    30    1
     7    22     4    1
     8     4    73    1
     9     5    23    1
    10     5    74    1
    11     6    24    1
    12     6    75    1
    13     7    25    1
    14     7    76    1
    15    31     8    1
    16     8    33    1
    17    27     9    1
    18     9    77    1
    19    10    28    1
    20    10    78    1
    21    11    32    1
    22    11    36    1
    23    12    34   ar
    24    12    39   ar
    25    13    36    2
    26    14    40    1
    27    14    87    1
    28    15    46    1
    29    15    88    1
    30    16    48    1
    31    16    89    1
    32    17    50    1
    33    17    92    1
    34    18    54    1
    35    18    57    1
    36    19    55    1
    37    19    58    1
    38    20    56    1
    39    20    93    1
    40    21    22    1
    41    21    30    1
    42    21    59    1
    43    22    23    1
    44    22    60    1
    45    23    28    1
    46    23    61    1
    47    24    25    1
    48    24    26    1
    49    24    62    1
    50    25    27    1
    51    25    63    1
    52    26    64    1
    53    27    29    1
    54    27    65    1
    55    28    31    1
    56    28    66    1
    57    29    32    1
    58    29    67    1
    59    30    68    1
    60    30    69    1
    61    31    70    1
    62    32    71    1
    63    32    72    1
    64    33    34   ar
    65    33    35   ar
    66    34    38    1
    67    35    37   ar
    68    35    79    1
    69    36    41    1
    70    37    39   ar
    71    37    40   ar
    72    38    43   ar
    73    38    44   ar
    74    39    42   ar
    75    40    45   ar
    76    41    47    2
    77    41    80    1
    78    42    46   ar
    79    42    81    1
    80    43    48   ar
    81    43    82    1
    82    44    49   ar
    83    44    83    1
    84    45    46   ar
    85    45    84    1
    86    47    51    1
    87    47    85    1
    88    48    50   ar
    89    49    50   ar
    90    49    86    1
    91    51    52   ar
    92    51    53   ar
    93    52    55   ar
    94    52    90    1
    95    53    54   ar
    96    53    91    1
    97    54    56   ar
    98    55    56   ar
    99    57    94    1
   100    57    95    1
   101    57    96    1
   102    58    97    1
   103    58    98    1
   104    58    99    1
