@<TRIPOS>MOLECULE
IMPHY015515
 41 42 0 0 0
SMALL
GASTEIGER

@<TRIPOS>ATOM
      1 O           4.8660    0.7321    0.0000 O.3     1  UNL1       -0.3600
      2 O           4.0000    3.2320    0.0000 O.2     1  UNL1       -0.2944
      3 C           4.0000    0.2321    0.0000 C.3     1  UNL1        0.0715
      4 C           3.5000   -0.6340    0.0000 C.3     1  UNL1       -0.0084
      5 C           3.1340    0.7321    0.0000 C.3     1  UNL1       -0.0169
      6 C           2.5000   -0.6340    0.0000 C.3     1  UNL1       -0.0436
      7 C           4.0000   -1.5000    0.0000 C.3     1  UNL1       -0.0291
      8 C           4.8660    1.7320    0.0000 C.3     1  UNL1        0.1221
      9 C           3.1340    1.7320    0.0000 C.3     1  UNL1        0.0113
     10 C           4.5000   -0.6340    0.0000 C.3     1  UNL1       -0.0355
     11 C           2.0000   -1.5000    0.0000 C.3     1  UNL1       -0.0317
     12 C           4.0000    2.2320    0.0000 C.2     1  UNL1        0.1644
     13 C           3.5000   -2.3660    0.0000 C.2     1  UNL1       -0.0847
     14 C           2.5000   -2.3660    0.0000 C.2     1  UNL1       -0.0765
     15 C           5.3660    2.5981    0.0000 C.3     1  UNL1       -0.0291
     16 C           5.8660    1.7320    0.0000 C.3     1  UNL1       -0.0291
     17 C           2.0000   -3.2320    0.0000 C.3     1  UNL1       -0.0438
     18 H           3.0750    0.1021    0.0000 H       1  UNL1        0.0331
     19 H           2.5234    0.8397    0.0000 H       1  UNL1        0.0297
     20 H           2.9219    0.1494    0.0000 H       1  UNL1        0.0297
     21 H           2.6077   -0.0234    0.0000 H       1  UNL1        0.0272
     22 H           1.9174   -0.4219    0.0000 H       1  UNL1        0.0272
     23 H           4.4750   -1.8985    0.0000 H       1  UNL1        0.0311
     24 H           4.4750   -1.1015    0.0000 H       1  UNL1        0.0311
     25 H           2.9219    2.3147    0.0000 H       1  UNL1        0.0343
     26 H           2.5234    1.6244    0.0000 H       1  UNL1        0.0343
     27 H           3.9631   -0.9440    0.0000 H       1  UNL1        0.0257
     28 H           4.8100   -1.1709    0.0000 H       1  UNL1        0.0257
     29 H           5.0369   -0.3240    0.0000 H       1  UNL1        0.0257
     30 H           1.5250   -1.1015    0.0000 H       1  UNL1        0.0310
     31 H           1.5250   -1.8985    0.0000 H       1  UNL1        0.0310
     32 H           3.8100   -2.9030    0.0000 H       1  UNL1        0.0572
     33 H           5.9030    2.2881    0.0000 H       1  UNL1        0.0261
     34 H           5.6760    3.1350    0.0000 H       1  UNL1        0.0261
     35 H           4.8291    2.9081    0.0000 H       1  UNL1        0.0261
     36 H           5.8660    1.1120    0.0000 H       1  UNL1        0.0261
     37 H           6.4860    1.7320    0.0000 H       1  UNL1        0.0261
     38 H           5.8660    2.3521    0.0000 H       1  UNL1        0.0261
     39 H           1.4631   -2.9220    0.0000 H       1  UNL1        0.0274
     40 H           1.6900   -3.7690    0.0000 H       1  UNL1        0.0274
     41 H           2.5369   -3.5420    0.0000 H       1  UNL1        0.0274
@<TRIPOS>BOND
     1     1     3    1
     2     1     8    1
     3     2    12    2
     4     3     4    1
     5     3     5    1
     6     3    10    1
     7     4     6    1
     8     4     7    1
     9     4    18    1
    10     5     9    1
    11     5    19    1
    12     5    20    1
    13     6    11    1
    14     6    21    1
    15     6    22    1
    16     7    13    1
    17     7    23    1
    18     7    24    1
    19     8    12    1
    20     8    15    1
    21     8    16    1
    22     9    12    1
    23     9    25    1
    24     9    26    1
    25    10    27    1
    26    10    28    1
    27    10    29    1
    28    11    14    1
    29    11    30    1
    30    11    31    1
    31    13    14    2
    32    13    32    1
    33    14    17    1
    34    15    33    1
    35    15    34    1
    36    15    35    1
    37    16    36    1
    38    16    37    1
    39    16    38    1
    40    17    39    1
    41    17    40    1
    42    17    41    1
