@<TRIPOS>MOLECULE
IMPHY012288
 45 45 0 0 0
SMALL
GASTEIGER

@<TRIPOS>ATOM
      1 O           4.2690   -0.9050    0.0000 O.3     1  UNL1       -0.3405
      2 O           6.0010   -0.9050    0.0000 O.3     1  UNL1       -0.3355
      3 O           4.2690   -3.9050    0.0000 O.3     1  UNL1       -0.3864
      4 O           2.5369   -2.9050    0.0000 O.3     1  UNL1       -0.3865
      5 O           6.0010   -2.9050    0.0000 O.3     1  UNL1       -0.3841
      6 O           7.7331    0.0950    0.0000 O.3     1  UNL1       -0.3861
      7 O           2.5369    0.0950    0.0000 O.3     1  UNL1       -0.3924
      8 O           6.0010    2.0950    0.0000 O.3     1  UNL1       -0.3865
      9 O           8.5991    1.5950    0.0000 O.3     1  UNL1       -0.3869
     10 O           5.1350    1.5950    0.0000 O.2     1  UNL1       -0.2982
     11 O           8.5991    3.5950    0.0000 O.3     1  UNL1       -0.3924
     12 C           4.2690   -2.9050    0.0000 C.3     1  UNL1        0.1141
     13 C           3.4030   -2.4050    0.0000 C.3     1  UNL1        0.1119
     14 C           5.1350   -2.4050    0.0000 C.3     1  UNL1        0.1341
     15 C           3.4030   -1.4050    0.0000 C.3     1  UNL1        0.1130
     16 C           5.1350   -1.4050    0.0000 C.3     1  UNL1        0.1888
     17 C           6.0010    0.0950    0.0000 C.3     1  UNL1        0.1447
     18 C           6.8671    0.5950    0.0000 C.3     1  UNL1        0.1162
     19 C           2.5369   -0.9050    0.0000 C.3     1  UNL1        0.0730
     20 C           6.8671    1.5950    0.0000 C.3     1  UNL1        0.1118
     21 C           7.7331    2.0950    0.0000 C.3     1  UNL1        0.1065
     22 C           5.1350    0.5950    0.0000 C.2     1  UNL1        0.1516
     23 C           7.7331    3.0950    0.0000 C.3     1  UNL1        0.0727
     24 H           3.7320   -3.2150    0.0000 H       1  UNL1        0.0648
     25 H           3.4030   -3.0250    0.0000 H       1  UNL1        0.0647
     26 H           5.1350   -3.0250    0.0000 H       1  UNL1        0.0671
     27 H           3.4030   -0.7850    0.0000 H       1  UNL1        0.0647
     28 H           5.1350   -0.7850    0.0000 H       1  UNL1        0.0938
     29 H           5.4641   -0.2150    0.0000 H       1  UNL1        0.0701
     30 H           6.8671   -0.0250    0.0000 H       1  UNL1        0.0650
     31 H           1.9264   -0.7973    0.0000 H       1  UNL1        0.0584
     32 H           2.3249   -1.4876    0.0000 H       1  UNL1        0.0584
     33 H           6.3301    1.2850    0.0000 H       1  UNL1        0.0647
     34 H           8.2700    2.4050    0.0000 H       1  UNL1        0.0643
     35 H           3.7320   -4.2150    0.0000 H       1  UNL1        0.2100
     36 H           6.0010   -3.5250    0.0000 H       1  UNL1        0.2101
     37 H           2.0000   -2.5950    0.0000 H       1  UNL1        0.2100
     38 H           4.5981    0.2850    0.0000 H       1  UNL1        0.1055
     39 H           7.5210    3.6776    0.0000 H       1  UNL1        0.0584
     40 H           7.1225    2.9873    0.0000 H       1  UNL1        0.0584
     41 H           8.2700    0.4050    0.0000 H       1  UNL1        0.2100
     42 H           2.0000    0.4050    0.0000 H       1  UNL1        0.2095
     43 H           6.0010    2.7150    0.0000 H       1  UNL1        0.2100
     44 H           9.1360    1.9050    0.0000 H       1  UNL1        0.2100
     45 H           8.5991    4.2150    0.0000 H       1  UNL1        0.2095
@<TRIPOS>BOND
     1     1    15    1
     2     1    16    1
     3    16     2    1
     4    17     2    1
     5    12     3    1
     6     3    35    1
     7    13     4    1
     8     4    37    1
     9    14     5    1
    10     5    36    1
    11    18     6    1
    12     6    41    1
    13     7    19    1
    14     7    42    1
    15    20     8    1
    16     8    43    1
    17    21     9    1
    18     9    44    1
    19    10    22    2
    20    11    23    1
    21    11    45    1
    22    12    13    1
    23    12    14    1
    24    12    24    1
    25    13    15    1
    26    13    25    1
    27    14    16    1
    28    14    26    1
    29    15    19    1
    30    15    27    1
    31    16    28    1
    32    17    18    1
    33    17    22    1
    34    17    29    1
    35    18    20    1
    36    18    30    1
    37    19    31    1
    38    19    32    1
    39    20    21    1
    40    20    33    1
    41    21    23    1
    42    21    34    1
    43    22    38    1
    44    23    39    1
    45    23    40    1
