@<TRIPOS>MOLECULE
IMPHY006012
 18 18 0 0 0
SMALL
GASTEIGER

@<TRIPOS>ATOM
      1 O           3.7320    1.7500    0.0000 O.2     1  UNL1       -0.3007
      2 C           2.8660    0.2500    0.0000 C.3     1  UNL1        0.0182
      3 C           2.0000   -0.2500    0.0000 C.3     1  UNL1       -0.0401
      4 C           3.7320   -0.2500    0.0000 C.3     1  UNL1       -0.0255
      5 C           2.0000   -1.2500    0.0000 C.3     1  UNL1       -0.0341
      6 C           3.7320   -1.2500    0.0000 C.2     1  UNL1       -0.0873
      7 C           2.8660   -1.7500    0.0000 C.2     1  UNL1       -0.0879
      8 C           2.8660    1.2500    0.0000 C.2     1  UNL1        0.1237
      9 H           3.6022    0.6750    0.0000 H       1  UNL1        0.0378
     10 H           1.7880    0.3326    0.0000 H       1  UNL1        0.0275
     11 H           1.3894   -0.3577    0.0000 H       1  UNL1        0.0275
     12 H           4.3426   -0.3577    0.0000 H       1  UNL1        0.0314
     13 H           3.9441    0.3326    0.0000 H       1  UNL1        0.0314
     14 H           1.3894   -1.1423    0.0000 H       1  UNL1        0.0308
     15 H           1.7880   -1.8326    0.0000 H       1  UNL1        0.0308
     16 H           4.2690   -1.5600    0.0000 H       1  UNL1        0.0569
     17 H           2.8660   -2.3700    0.0000 H       1  UNL1        0.0569
     18 H           2.3291    1.5600    0.0000 H       1  UNL1        0.1029
@<TRIPOS>BOND
     1     1     8    2
     2     2     3    1
     3     2     4    1
     4     2     8    1
     5     2     9    1
     6     3     5    1
     7     3    10    1
     8     3    11    1
     9     4     6    1
    10     4    12    1
    11     4    13    1
    12     5     7    1
    13     5    14    1
    14     5    15    1
    15     6     7    2
    16     6    16    1
    17     7    17    1
    18     8    18    1
