@<TRIPOS>MOLECULE
IMPHY014335
 59 64 0 0 0
SMALL
GASTEIGER

@<TRIPOS>ATOM
      1 O           4.2100   -2.3638    0.0000 O.3     1  UNL1       -0.3604
      2 O           9.6033   -3.4157    0.0000 O.3     1  UNL1       -0.3918
      3 O           2.0000    2.1993    0.0000 O.3     1  UNL1       -0.4571
      4 O           3.2579    3.4615    0.0000 O.2     1  UNL1       -0.2456
      5 C           4.2102   -1.3634    0.0000 C.3     1  UNL1        0.1053
      6 C           5.0762   -1.8634    0.0000 C.3     1  UNL1        0.1030
      7 C           4.2102   -0.3634    0.0000 C.3     1  UNL1        0.0063
      8 C           5.9422   -1.3634    0.0000 C.3     1  UNL1       -0.0034
      9 C           6.8522   -1.8702    0.0000 C.3     1  UNL1       -0.0235
     10 C           3.2640   -1.6681    0.0000 C.3     1  UNL1       -0.0199
     11 C           5.0602   -2.9049    0.0000 C.3     1  UNL1       -0.0204
     12 C           3.2640   -0.0586    0.0000 C.3     1  UNL1       -0.0080
     13 C           5.0762    0.1366    0.0000 C.3     1  UNL1       -0.0440
     14 C           5.9422   -0.3634    0.0000 C.3     1  UNL1       -0.0464
     15 C           6.8603   -2.9118    0.0000 C.3     1  UNL1       -0.0329
     16 C           2.6804   -0.8634    0.0000 C.3     1  UNL1       -0.0431
     17 C           5.9582   -3.4326    0.0000 C.3     1  UNL1       -0.0469
     18 C           4.2102    0.6366    0.0000 C.3     1  UNL1       -0.0563
     19 C           7.7791   -1.3061    0.0000 C.3     1  UNL1       -0.0447
     20 C           6.8446   -0.8702    0.0000 C.3     1  UNL1       -0.0590
     21 C           7.7957   -3.4615    0.0000 C.3     1  UNL1       -0.0235
     22 C           2.9533    0.8919    0.0000 C.2     1  UNL1       -0.0222
     23 C           8.7270   -1.8341    0.0000 C.3     1  UNL1       -0.0263
     24 C           8.7353   -2.9190    0.0000 C.3     1  UNL1        0.0555
     25 C           2.0017    1.1993    0.0000 C.3     1  UNL1        0.1147
     26 C           3.5397    1.7019    0.0000 C.2     1  UNL1        0.0252
     27 C           2.9505    2.5099    0.0000 C.2     1  UNL1        0.3323
     28 H           6.6751   -0.9327    0.0000 H       1  UNL1        0.0335
     29 H           2.7266   -1.9773    0.0000 H       1  UNL1        0.0294
     30 H           3.5150   -2.2350    0.0000 H       1  UNL1        0.0294
     31 H           4.4510   -2.7894    0.0000 H       1  UNL1        0.0294
     32 H           4.8421   -3.4853    0.0000 H       1  UNL1        0.0294
     33 H           2.6515    0.0376    0.0000 H       1  UNL1        0.0353
     34 H           5.4748    0.6116    0.0000 H       1  UNL1        0.0272
     35 H           4.6777    0.6116    0.0000 H       1  UNL1        0.0272
     36 H           6.5528   -0.4710    0.0000 H       1  UNL1        0.0269
     37 H           6.1543    0.2193    0.0000 H       1  UNL1        0.0269
     38 H           6.8570   -3.7618    0.0000 H       1  UNL1        0.0307
     39 H           2.2195   -0.4486    0.0000 H       1  UNL1        0.0272
     40 H           2.2195   -1.2781    0.0000 H       1  UNL1        0.0272
     41 H           5.5572   -3.9055    0.0000 H       1  UNL1        0.0269
     42 H           6.3555   -3.9086    0.0000 H       1  UNL1        0.0269
     43 H           4.8302    0.6366    0.0000 H       1  UNL1        0.0236
     44 H           4.2102    1.2566    0.0000 H       1  UNL1        0.0236
     45 H           3.5902    0.6366    0.0000 H       1  UNL1        0.0236
     46 H           8.1690   -0.8241    0.0000 H       1  UNL1        0.0271
     47 H           7.3709   -0.8395    0.0000 H       1  UNL1        0.0271
     48 H           7.3947   -3.9344    0.0000 H       1  UNL1        0.0293
     49 H           8.1930   -3.9375    0.0000 H       1  UNL1        0.0293
     50 H           7.4645   -0.8654    0.0000 H       1  UNL1        0.0235
     51 H           6.8398   -0.2502    0.0000 H       1  UNL1        0.0235
     52 H           6.2246   -0.8750    0.0000 H       1  UNL1        0.0235
     53 H           9.3386   -1.9354    0.0000 H       1  UNL1        0.0290
     54 H           8.9315   -1.2488    0.0000 H       1  UNL1        0.0290
     55 H           8.7365   -3.5390    0.0000 H       1  UNL1        0.0593
     56 H           1.3850    1.2630    0.0000 H       1  UNL1        0.0746
     57 H           1.8739    0.5926    0.0000 H       1  UNL1        0.0746
     58 H           4.1597    1.7030    0.0000 H       1  UNL1        0.0689
     59 H          10.1390   -3.1036    0.0000 H       1  UNL1        0.2098
@<TRIPOS>BOND
     1     5     1    1
     2     6     1    1
     3    24     2    1
     4     2    59    1
     5     3    25    1
     6     3    27    1
     7     4    27    2
     8     5     6    1
     9     5     7    1
    10     5    10    1
    11     6     8    1
    12     6    11    1
    13     7    12    1
    14     7    13    1
    15     7    18    1
    16     8     9    1
    17     8    14    1
    18     8    28    1
    19     9    15    1
    20     9    19    1
    21     9    20    1
    22    10    16    1
    23    10    29    1
    24    10    30    1
    25    11    17    1
    26    11    31    1
    27    11    32    1
    28    12    16    1
    29    12    22    1
    30    12    33    1
    31    13    14    1
    32    13    34    1
    33    13    35    1
    34    14    36    1
    35    14    37    1
    36    15    17    1
    37    15    21    1
    38    15    38    1
    39    16    39    1
    40    16    40    1
    41    17    41    1
    42    17    42    1
    43    18    43    1
    44    18    44    1
    45    18    45    1
    46    19    23    1
    47    19    46    1
    48    19    47    1
    49    20    50    1
    50    20    51    1
    51    20    52    1
    52    21    24    1
    53    21    48    1
    54    21    49    1
    55    22    25    1
    56    22    26    2
    57    23    24    1
    58    23    53    1
    59    23    54    1
    60    24    55    1
    61    25    56    1
    62    25    57    1
    63    26    27    1
    64    26    58    1
