@<TRIPOS>MOLECULE
IMPHY009610
 204 214 0 0 0
SMALL
GASTEIGER

@<TRIPOS>ATOM
      1 O          10.1239    6.6232    0.0000 O.3     1  UNL1       -0.3450
      2 O           9.8216    8.5634    0.0000 O.3     1  UNL1       -0.3642
      3 O          17.9751    3.7336    0.0000 O.3     1  UNL1       -0.3429
      4 O          17.9670    5.8253    0.0000 O.3     1  UNL1       -0.3892
      5 O          17.1090    2.2336    0.0000 O.3     1  UNL1       -0.3405
      6 O           6.1226    5.8913    0.0000 O.3     1  UNL1       -0.3484
      7 O          19.7071    2.7336    0.0000 O.3     1  UNL1       -0.3841
      8 O          19.7071    0.7336    0.0000 O.3     1  UNL1       -0.3864
      9 O          17.9751   -0.2664    0.0000 O.3     1  UNL1       -0.3401
     10 O          15.3770    1.2336    0.0000 O.3     1  UNL1       -0.3924
     11 O           4.6200    5.0298    0.0000 O.3     1  UNL1       -0.3405
     12 O          16.2430   -0.2664    0.0000 O.3     1  UNL1       -0.3405
     13 O           7.1174    4.1563    0.0000 O.3     1  UNL1       -0.3841
     14 O          17.9751   -2.2664    0.0000 O.3     1  UNL1       -0.3377
     15 O           6.1122    2.4272    0.0000 O.3     1  UNL1       -0.3864
     16 O           4.1122    2.4332    0.0000 O.3     1  UNL1       -0.3865
     17 O          16.2430   -3.2664    0.0000 O.3     1  UNL1       -0.3400
     18 O          14.5110   -2.2664    0.0000 O.3     1  UNL1       -0.3865
     19 O           2.6200    5.0358    0.0000 O.3     1  UNL1       -0.3924
     20 O          17.9751   -3.9984    0.0000 O.3     1  UNL1       -0.3405
     21 O          14.5110    0.7336    0.0000 O.3     1  UNL1       -0.3924
     22 O          14.5110   -3.2664    0.0000 O.3     1  UNL1       -0.3405
     23 O          19.9751   -2.2664    0.0000 O.3     1  UNL1       -0.3841
     24 O          20.9751   -3.9984    0.0000 O.3     1  UNL1       -0.3401
     25 O          16.2430   -5.2664    0.0000 O.3     1  UNL1       -0.3841
     26 O          19.9751   -5.7304    0.0000 O.3     1  UNL1       -0.3865
     27 O          14.5110   -6.2664    0.0000 O.3     1  UNL1       -0.3864
     28 O          12.7789   -5.2664    0.0000 O.3     1  UNL1       -0.3865
     29 O          17.9752   -6.7305    0.0000 O.3     1  UNL1       -0.3924
     30 O          20.9751   -5.7305    0.0000 O.3     1  UNL1       -0.3405
     31 O          12.7789   -2.2664    0.0000 O.3     1  UNL1       -0.3924
     32 O          22.9751   -3.9984    0.0000 O.3     1  UNL1       -0.3841
     33 O          23.9751   -5.7305    0.0000 O.3     1  UNL1       -0.3864
     34 O          22.9751   -7.4625    0.0000 O.3     1  UNL1       -0.3865
     35 O          21.4751   -8.3285    0.0000 O.3     1  UNL1       -0.3924
     36 C          12.5938    6.8067    0.0000 C.3     1  UNL1       -0.0233
     37 C          12.5899    5.8067    0.0000 C.3     1  UNL1       -0.0298
     38 C          13.4540    5.3034    0.0000 C.3     1  UNL1       -0.0343
     39 C          11.6487    7.1151    0.0000 C.3     1  UNL1       -0.0015
     40 C          14.3220    5.8000    0.0000 C.3     1  UNL1       -0.0322
     41 C          15.2300    5.2897    0.0000 C.3     1  UNL1       -0.0237
     42 C          11.0620    6.3126    0.0000 C.3     1  UNL1        0.0660
     43 C          11.6425    5.5056    0.0000 C.3     1  UNL1       -0.0226
     44 C          13.4617    7.3034    0.0000 C.3     1  UNL1       -0.0467
     45 C          14.3258    6.8000    0.0000 C.3     1  UNL1       -0.0489
     46 C          15.2340    4.2481    0.0000 C.3     1  UNL1       -0.0329
     47 C          11.0682    7.9148    0.0000 C.3     1  UNL1        0.0158
     48 C          13.4339    4.2620    0.0000 C.3     1  UNL1       -0.0494
     49 C          14.3299    3.7307    0.0000 C.3     1  UNL1       -0.0494
     50 C          12.5976    7.8067    0.0000 C.3     1  UNL1       -0.0590
     51 C          10.1277    7.6114    0.0000 C.3     1  UNL1        0.1704
     52 C          16.1590    5.8502    0.0000 C.3     1  UNL1       -0.0185
     53 C          16.1673    3.6948    0.0000 C.3     1  UNL1       -0.0207
     54 C          15.2261    6.2897    0.0000 C.3     1  UNL1       -0.0590
     55 C          17.1048    5.3186    0.0000 C.3     1  UNL1        0.0819
     56 C          17.1090    4.2336    0.0000 C.3     1  UNL1        0.0879
     57 C          11.3784    8.8654    0.0000 C.3     1  UNL1       -0.0572
     58 C           9.1277    7.6144    0.0000 C.3     1  UNL1        0.0018
     59 C           8.6252    6.7499    0.0000 C.3     1  UNL1       -0.0435
     60 C           7.6252    6.7529    0.0000 C.3     1  UNL1       -0.0201
     61 C          17.9751    2.7336    0.0000 C.3     1  UNL1        0.1883
     62 C          18.8411    2.2336    0.0000 C.3     1  UNL1        0.1341
     63 C           7.1226    5.8883    0.0000 C.3     1  UNL1        0.0533
     64 C           7.1277    7.6204    0.0000 C.3     1  UNL1       -0.0603
     65 C          18.8411    1.2336    0.0000 C.3     1  UNL1        0.1144
     66 C          17.1090    1.2336    0.0000 C.3     1  UNL1        0.1134
     67 C          17.9751    0.7336    0.0000 C.3     1  UNL1        0.1184
     68 C          16.2430    0.7336    0.0000 C.3     1  UNL1        0.0730
     69 C           5.6200    5.0268    0.0000 C.3     1  UNL1        0.1879
     70 C          17.1090   -0.7664    0.0000 C.3     1  UNL1        0.1888
     71 C           6.1174    4.1593    0.0000 C.3     1  UNL1        0.1341
     72 C           5.6148    3.2948    0.0000 C.3     1  UNL1        0.1141
     73 C          17.1090   -1.7664    0.0000 C.3     1  UNL1        0.1410
     74 C           4.1174    4.1653    0.0000 C.3     1  UNL1        0.1130
     75 C           4.6148    3.2978    0.0000 C.3     1  UNL1        0.1119
     76 C          16.2430   -2.2664    0.0000 C.3     1  UNL1        0.1209
     77 C          15.3770   -0.7664    0.0000 C.3     1  UNL1        0.1130
     78 C          15.3770   -1.7664    0.0000 C.3     1  UNL1        0.1123
     79 C           3.1174    4.1682    0.0000 C.3     1  UNL1        0.0730
     80 C          14.5110   -0.2664    0.0000 C.3     1  UNL1        0.0730
     81 C          18.4751   -3.1324    0.0000 C.3     1  UNL1        0.1886
     82 C          15.3770   -3.7664    0.0000 C.3     1  UNL1        0.1884
     83 C          19.4751   -3.1324    0.0000 C.3     1  UNL1        0.1345
     84 C          19.9751   -3.9984    0.0000 C.3     1  UNL1        0.1206
     85 C          15.3770   -4.7664    0.0000 C.3     1  UNL1        0.1341
     86 C          18.4751   -4.8644    0.0000 C.3     1  UNL1        0.1130
     87 C          19.4751   -4.8644    0.0000 C.3     1  UNL1        0.1123
     88 C          14.5110   -5.2664    0.0000 C.3     1  UNL1        0.1141
     89 C          13.6449   -3.7664    0.0000 C.3     1  UNL1        0.1130
     90 C          13.6449   -4.7664    0.0000 C.3     1  UNL1        0.1119
     91 C          17.9751   -5.7305    0.0000 C.3     1  UNL1        0.0730
     92 C          12.7789   -3.2664    0.0000 C.3     1  UNL1        0.0730
     93 C          21.4751   -4.8645    0.0000 C.3     1  UNL1        0.1884
     94 C          22.4751   -4.8645    0.0000 C.3     1  UNL1        0.1341
     95 C          22.9751   -5.7305    0.0000 C.3     1  UNL1        0.1141
     96 C          21.4751   -6.5965    0.0000 C.3     1  UNL1        0.1130
     97 C          22.4751   -6.5965    0.0000 C.3     1  UNL1        0.1119
     98 C          20.9751   -7.4625    0.0000 C.3     1  UNL1        0.0730
     99 H          12.5219    5.1905    0.0000 H       1  UNL1        0.0310
    100 H          12.9135    4.9996    0.0000 H       1  UNL1        0.0306
    101 H          12.0136    7.6164    0.0000 H       1  UNL1        0.0335
    102 H          14.8577    6.1121    0.0000 H       1  UNL1        0.0309
    103 H          10.6950    5.8129    0.0000 H       1  UNL1        0.0600
    104 H          11.1040    5.1985    0.0000 H       1  UNL1        0.0293
    105 H          11.8914    4.9378    0.0000 H       1  UNL1        0.0293
    106 H          13.8621    7.7768    0.0000 H       1  UNL1        0.0271
    107 H          13.0650    7.7798    0.0000 H       1  UNL1        0.0271
    108 H          14.9360    6.6900    0.0000 H       1  UNL1        0.0268
    109 H          14.5401    7.3818    0.0000 H       1  UNL1        0.0268
    110 H          15.2292    3.6281    0.0000 H       1  UNL1        0.0307
    111 H          10.6305    8.3539    0.0000 H       1  UNL1        0.0354
    112 H          12.8252    4.3798    0.0000 H       1  UNL1        0.0268
    113 H          13.2137    3.6824    0.0000 H       1  UNL1        0.0268
    114 H          13.9271    3.2594    0.0000 H       1  UNL1        0.0268
    115 H          14.7254    3.2532    0.0000 H       1  UNL1        0.0268
    116 H          13.2176    7.8043    0.0000 H       1  UNL1        0.0235
    117 H          12.6000    8.4267    0.0000 H       1  UNL1        0.0235
    118 H          11.9776    7.8091    0.0000 H       1  UNL1        0.0235
    119 H          16.5508    6.3307    0.0000 H       1  UNL1        0.0296
    120 H          15.7526    6.3184    0.0000 H       1  UNL1        0.0296
    121 H          15.7645    3.2234    0.0000 H       1  UNL1        0.0294
    122 H          16.5628    3.2172    0.0000 H       1  UNL1        0.0294
    123 H          15.8461    6.2921    0.0000 H       1  UNL1        0.0235
    124 H          15.2238    6.9097    0.0000 H       1  UNL1        0.0235
    125 H          14.6061    6.2873    0.0000 H       1  UNL1        0.0235
    126 H          17.6436    5.0117    0.0000 H       1  UNL1        0.0619
    127 H          17.6454    4.5446    0.0000 H       1  UNL1        0.0623
    128 H          11.9678    8.6731    0.0000 H       1  UNL1        0.0234
    129 H          11.5708    9.4549    0.0000 H       1  UNL1        0.0234
    130 H          10.7890    9.0578    0.0000 H       1  UNL1        0.0234
    131 H           9.2372    8.2247    0.0000 H       1  UNL1        0.0317
    132 H           8.5458    7.8282    0.0000 H       1  UNL1        0.0317
    133 H           9.2155    8.6941    0.0000 H       1  UNL1        0.2128
    134 H           8.5157    6.1396    0.0000 H       1  UNL1        0.0270
    135 H           9.2071    6.5361    0.0000 H       1  UNL1        0.0270
    136 H          17.9622    6.4452    0.0000 H       1  UNL1        0.2099
    137 H           7.9368    7.2889    0.0000 H       1  UNL1        0.0320
    138 H          17.4381    3.0436    0.0000 H       1  UNL1        0.0938
    139 H          18.8411    2.8536    0.0000 H       1  UNL1        0.0671
    140 H           7.0131    5.2781    0.0000 H       1  UNL1        0.0563
    141 H           7.7045    5.6746    0.0000 H       1  UNL1        0.0563
    142 H           7.6656    7.9288    0.0000 H       1  UNL1        0.0233
    143 H           6.8194    8.1582    0.0000 H       1  UNL1        0.0233
    144 H           6.5899    7.3120    0.0000 H       1  UNL1        0.0233
    145 H          18.8411    0.6136    0.0000 H       1  UNL1        0.0648
    146 H          16.5721    1.5436    0.0000 H       1  UNL1        0.0647
    147 H          17.4381    0.4236    0.0000 H       1  UNL1        0.0651
    148 H          19.7071    3.3536    0.0000 H       1  UNL1        0.2101
    149 H          15.8445    0.2587    0.0000 H       1  UNL1        0.0584
    150 H          16.6415    0.2587    0.0000 H       1  UNL1        0.0584
    151 H          20.2440    1.0436    0.0000 H       1  UNL1        0.2100
    152 H           5.3116    5.5647    0.0000 H       1  UNL1        0.0937
    153 H          17.6460   -1.0764    0.0000 H       1  UNL1        0.0938
    154 H           6.4258    3.6214    0.0000 H       1  UNL1        0.0671
    155 H          15.3770    1.8536    0.0000 H       1  UNL1        0.2095
    156 H           6.2348    3.2929    0.0000 H       1  UNL1        0.0648
    157 H          17.1090   -2.3864    0.0000 H       1  UNL1        0.0675
    158 H           3.8090    4.7031    0.0000 H       1  UNL1        0.0647
    159 H           4.9232    2.7599    0.0000 H       1  UNL1        0.0647
    160 H          15.7061   -2.5764    0.0000 H       1  UNL1        0.0651
    161 H           7.4258    3.6184    0.0000 H       1  UNL1        0.2101
    162 H          15.3770   -0.1464    0.0000 H       1  UNL1        0.0647
    163 H          14.8400   -1.4564    0.0000 H       1  UNL1        0.0647
    164 H           2.5342    3.9579    0.0000 H       1  UNL1        0.0584
    165 H           3.2232    3.5574    0.0000 H       1  UNL1        0.0584
    166 H           5.8006    1.8912    0.0000 H       1  UNL1        0.2100
    167 H           3.4922    2.4351    0.0000 H       1  UNL1        0.2100
    168 H          13.9004   -0.1587    0.0000 H       1  UNL1        0.0584
    169 H          14.2989   -0.8490    0.0000 H       1  UNL1        0.0584
    170 H          18.7851   -2.5954    0.0000 H       1  UNL1        0.0938
    171 H          13.9740   -1.9564    0.0000 H       1  UNL1        0.2100
    172 H           2.0000    5.0376    0.0000 H       1  UNL1        0.2095
    173 H          15.9139   -4.0764    0.0000 H       1  UNL1        0.0938
    174 H          20.0951   -3.1324    0.0000 H       1  UNL1        0.0671
    175 H          13.9740    1.0436    0.0000 H       1  UNL1        0.2095
    176 H          20.2851   -4.5354    0.0000 H       1  UNL1        0.0651
    177 H          15.3770   -5.3864    0.0000 H       1  UNL1        0.0671
    178 H          17.8551   -4.8644    0.0000 H       1  UNL1        0.0647
    179 H          20.0951   -4.8644    0.0000 H       1  UNL1        0.0647
    180 H          15.0479   -5.5764    0.0000 H       1  UNL1        0.0648
    181 H          13.6449   -3.1464    0.0000 H       1  UNL1        0.0647
    182 H          19.6651   -1.7294    0.0000 H       1  UNL1        0.2101
    183 H          13.6449   -5.3864    0.0000 H       1  UNL1        0.0647
    184 H          17.5765   -5.2555    0.0000 H       1  UNL1        0.0584
    185 H          18.5740   -5.8909    0.0000 H       1  UNL1        0.0584
    186 H          16.2430   -5.8864    0.0000 H       1  UNL1        0.2101
    187 H          19.6651   -6.2674    0.0000 H       1  UNL1        0.2100
    188 H          12.1683   -3.1587    0.0000 H       1  UNL1        0.0584
    189 H          12.5668   -3.8490    0.0000 H       1  UNL1        0.0584
    190 H          20.8551   -4.8645    0.0000 H       1  UNL1        0.0938
    191 H          13.9740   -6.5764    0.0000 H       1  UNL1        0.2100
    192 H          12.2420   -4.9564    0.0000 H       1  UNL1        0.2100
    193 H          17.4382   -7.0405    0.0000 H       1  UNL1        0.2095
    194 H          23.0951   -4.8645    0.0000 H       1  UNL1        0.0671
    195 H          23.2851   -6.2674    0.0000 H       1  UNL1        0.0648
    196 H          12.2420   -1.9564    0.0000 H       1  UNL1        0.2095
    197 H          20.8551   -6.5965    0.0000 H       1  UNL1        0.0647
    198 H          23.0951   -6.5965    0.0000 H       1  UNL1        0.0647
    199 H          22.6651   -3.4615    0.0000 H       1  UNL1        0.2101
    200 H          20.5002   -7.0640    0.0000 H       1  UNL1        0.0584
    201 H          20.5002   -7.8610    0.0000 H       1  UNL1        0.0584
    202 H          24.2851   -6.2674    0.0000 H       1  UNL1        0.2100
    203 H          23.5951   -7.4625    0.0000 H       1  UNL1        0.2100
    204 H          21.1651   -8.8654    0.0000 H       1  UNL1        0.2095
@<TRIPOS>BOND
     1     1    42    1
     2     1    51    1
     3     2    51    1
     4     2   133    1
     5     3    56    1
     6     3    61    1
     7     4    55    1
     8     4   136    1
     9     5    61    1
    10     5    66    1
    11     6    63    1
    12     6    69    1
    13     7    62    1
    14     7   148    1
    15     8    65    1
    16     8   151    1
    17     9    67    1
    18     9    70    1
    19    10    68    1
    20    10   155    1
    21    11    69    1
    22    11    74    1
    23    12    70    1
    24    12    77    1
    25    13    71    1
    26    13   161    1
    27    14    73    1
    28    14    81    1
    29    15    72    1
    30    15   166    1
    31    16    75    1
    32    16   167    1
    33    17    76    1
    34    17    82    1
    35    18    78    1
    36    18   171    1
    37    19    79    1
    38    19   172    1
    39    20    81    1
    40    20    86    1
    41    21    80    1
    42    21   175    1
    43    22    82    1
    44    22    89    1
    45    23    83    1
    46    23   182    1
    47    24    84    1
    48    24    93    1
    49    25    85    1
    50    25   186    1
    51    26    87    1
    52    26   187    1
    53    27    88    1
    54    27   191    1
    55    28    90    1
    56    28   192    1
    57    29    91    1
    58    29   193    1
    59    30    93    1
    60    30    96    1
    61    31    92    1
    62    31   196    1
    63    32    94    1
    64    32   199    1
    65    33    95    1
    66    33   202    1
    67    34    97    1
    68    34   203    1
    69    35    98    1
    70    35   204    1
    71    36    37    1
    72    36    39    1
    73    36    44    1
    74    36    50    1
    75    37    38    1
    76    37    43    1
    77    37    99    1
    78    38    40    1
    79    38    48    1
    80    38   100    1
    81    39    42    1
    82    39    47    1
    83    39   101    1
    84    40    41    1
    85    40    45    1
    86    40   102    1
    87    41    46    1
    88    41    52    1
    89    41    54    1
    90    42    43    1
    91    42   103    1
    92    43   104    1
    93    43   105    1
    94    44    45    1
    95    44   106    1
    96    44   107    1
    97    45   108    1
    98    45   109    1
    99    46    49    1
   100    46    53    1
   101    46   110    1
   102    47    51    1
   103    47    57    1
   104    47   111    1
   105    48    49    1
   106    48   112    1
   107    48   113    1
   108    49   114    1
   109    49   115    1
   110    50   116    1
   111    50   117    1
   112    50   118    1
   113    51    58    1
   114    52    55    1
   115    52   119    1
   116    52   120    1
   117    53    56    1
   118    53   121    1
   119    53   122    1
   120    54   123    1
   121    54   124    1
   122    54   125    1
   123    55    56    1
   124    55   126    1
   125    56   127    1
   126    57   128    1
   127    57   129    1
   128    57   130    1
   129    58    59    1
   130    58   131    1
   131    58   132    1
   132    59    60    1
   133    59   134    1
   134    59   135    1
   135    60    63    1
   136    60    64    1
   137    60   137    1
   138    61    62    1
   139    61   138    1
   140    62    65    1
   141    62   139    1
   142    63   140    1
   143    63   141    1
   144    64   142    1
   145    64   143    1
   146    64   144    1
   147    65    67    1
   148    65   145    1
   149    66    67    1
   150    66    68    1
   151    66   146    1
   152    67   147    1
   153    68   149    1
   154    68   150    1
   155    69    71    1
   156    69   152    1
   157    70    73    1
   158    70   153    1
   159    71    72    1
   160    71   154    1
   161    72    75    1
   162    72   156    1
   163    73    76    1
   164    73   157    1
   165    74    75    1
   166    74    79    1
   167    74   158    1
   168    75   159    1
   169    76    78    1
   170    76   160    1
   171    77    78    1
   172    77    80    1
   173    77   162    1
   174    78   163    1
   175    79   164    1
   176    79   165    1
   177    80   168    1
   178    80   169    1
   179    81    83    1
   180    81   170    1
   181    82    85    1
   182    82   173    1
   183    83    84    1
   184    83   174    1
   185    84    87    1
   186    84   176    1
   187    85    88    1
   188    85   177    1
   189    86    87    1
   190    86    91    1
   191    86   178    1
   192    87   179    1
   193    88    90    1
   194    88   180    1
   195    89    90    1
   196    89    92    1
   197    89   181    1
   198    90   183    1
   199    91   184    1
   200    91   185    1
   201    92   188    1
   202    92   189    1
   203    93    94    1
   204    93   190    1
   205    94    95    1
   206    94   194    1
   207    95    97    1
   208    95   195    1
   209    96    97    1
   210    96    98    1
   211    96   197    1
   212    97   198    1
   213    98   200    1
   214    98   201    1
