@<TRIPOS>MOLECULE
IMPHY017868
 45 46 0 0 0
SMALL
GASTEIGER

@<TRIPOS>ATOM
      1 O           5.3855    1.7611    0.0000 O.3     1  UNL1       -0.3910
      2 C           3.7320   -1.1247    0.0000 C.3     1  UNL1       -0.0250
      3 C           3.7320   -0.1247    0.0000 C.3     1  UNL1       -0.0070
      4 C           4.6783    0.1800    0.0000 C.3     1  UNL1        0.0011
      5 C           4.6783   -1.4294    0.0000 C.3     1  UNL1       -0.0465
      6 C           5.2619   -0.6247    0.0000 C.3     1  UNL1       -0.0442
      7 C           2.8660   -1.6247    0.0000 C.3     1  UNL1       -0.0468
      8 C           5.4883    0.7664    0.0000 C.3     1  UNL1        0.0635
      9 C           2.8660    0.3753    0.0000 C.2     1  UNL1       -0.0724
     10 C           3.7320   -2.1247    0.0000 C.3     1  UNL1       -0.0590
     11 C           4.3709    1.1316    0.0000 C.3     1  UNL1       -0.0566
     12 C           2.0000   -1.1247    0.0000 C.3     1  UNL1       -0.0489
     13 C           2.0000   -0.1247    0.0000 C.3     1  UNL1       -0.0317
     14 C           6.4011    0.3581    0.0000 C.3     1  UNL1       -0.0201
     15 C           2.8660    1.3753    0.0000 C.2     1  UNL1       -0.0991
     16 C           7.2112    0.9445    0.0000 C.3     1  UNL1       -0.0603
     17 C           6.5040   -0.6366    0.0000 C.3     1  UNL1       -0.0603
     18 H           3.8220    0.7205    0.0000 H       1  UNL1        0.0357
     19 H           4.4272   -1.9963    0.0000 H       1  UNL1        0.0271
     20 H           5.2156   -1.7386    0.0000 H       1  UNL1        0.0271
     21 H           5.7227   -1.0394    0.0000 H       1  UNL1        0.0272
     22 H           5.7227   -0.2100    0.0000 H       1  UNL1        0.0272
     23 H           2.4675   -2.0996    0.0000 H       1  UNL1        0.0271
     24 H           3.2646   -2.0996    0.0000 H       1  UNL1        0.0271
     25 H           5.9905    1.1300    0.0000 H       1  UNL1        0.0601
     26 H           3.1120   -2.1247    0.0000 H       1  UNL1        0.0235
     27 H           3.7320   -2.7447    0.0000 H       1  UNL1        0.0235
     28 H           4.3520   -2.1247    0.0000 H       1  UNL1        0.0235
     29 H           4.9609    1.3222    0.0000 H       1  UNL1        0.0236
     30 H           4.1803    1.7216    0.0000 H       1  UNL1        0.0236
     31 H           3.7809    0.9411    0.0000 H       1  UNL1        0.0236
     32 H           1.3894   -1.0170    0.0000 H       1  UNL1        0.0268
     33 H           1.7880   -1.7073    0.0000 H       1  UNL1        0.0268
     34 H           1.7880    0.4579    0.0000 H       1  UNL1        0.0310
     35 H           1.3894   -0.2324    0.0000 H       1  UNL1        0.0310
     36 H           5.8989   -0.0054    0.0000 H       1  UNL1        0.0320
     37 H           3.4030    1.6853    0.0000 H       1  UNL1        0.0534
     38 H           2.3291    1.6853    0.0000 H       1  UNL1        0.0534
     39 H           5.8877    2.1247    0.0000 H       1  UNL1        0.2098
     40 H           7.5747    0.4423    0.0000 H       1  UNL1        0.0233
     41 H           7.7134    1.3080    0.0000 H       1  UNL1        0.0233
     42 H           6.8476    1.4467    0.0000 H       1  UNL1        0.0233
     43 H           5.8872   -0.7003    0.0000 H       1  UNL1        0.0233
     44 H           6.5677   -1.2533    0.0000 H       1  UNL1        0.0233
     45 H           7.1207   -0.5728    0.0000 H       1  UNL1        0.0233
@<TRIPOS>BOND
     1     8     1    1
     2     1    39    1
     3     2     3    1
     4     2     5    1
     5     2     7    1
     6     2    10    1
     7     3     4    1
     8     3     9    1
     9     3    18    1
    10     4     6    1
    11     4     8    1
    12     4    11    1
    13     5     6    1
    14     5    19    1
    15     5    20    1
    16     6    21    1
    17     6    22    1
    18     7    12    1
    19     7    23    1
    20     7    24    1
    21     8    14    1
    22     8    25    1
    23     9    13    1
    24     9    15    2
    25    10    26    1
    26    10    27    1
    27    10    28    1
    28    11    29    1
    29    11    30    1
    30    11    31    1
    31    12    13    1
    32    12    32    1
    33    12    33    1
    34    13    34    1
    35    13    35    1
    36    14    16    1
    37    14    17    1
    38    14    36    1
    39    15    37    1
    40    15    38    1
    41    16    40    1
    42    16    41    1
    43    16    42    1
    44    17    43    1
    45    17    44    1
    46    17    45    1
