@<TRIPOS>MOLECULE
IMPHY013699
 40 42 0 0 0
SMALL
GASTEIGER

@<TRIPOS>ATOM
      1 C           4.5772   -0.3664    0.0000 C.3     1  UNL1        0.0042
      2 C           4.6841    0.8104    0.0000 C.3     1  UNL1       -0.0219
      3 C           4.0772    1.8243    0.0000 C.3     1  UNL1       -0.0313
      4 C           5.4782    0.0675    0.0000 C.3     1  UNL1       -0.0337
      5 C           3.6763    0.0675    0.0000 C.2     1  UNL1       -0.0589
      6 C           3.4538    1.0424    0.0000 C.3     1  UNL1       -0.0273
      7 C           4.4413   -1.3511    0.0000 C.3     1  UNL1       -0.0179
      8 C           5.0772    1.8243    0.0000 C.3     1  UNL1       -0.0491
      9 C           5.7007    1.0424    0.0000 C.3     1  UNL1       -0.0494
     10 C           5.5796    1.5319    0.0000 C.3     1  UNL1       -0.0587
     11 C           5.8040    0.5489    0.0000 C.3     1  UNL1       -0.0587
     12 C           2.9912   -0.6528    0.0000 C.2     1  UNL1       -0.0480
     13 C           3.4630   -1.5278    0.0000 C.2     1  UNL1       -0.0507
     14 C           6.2600   -0.5560    0.0000 C.3     1  UNL1       -0.0616
     15 C           2.0000   -0.5203    0.0000 C.3     1  UNL1       -0.0395
     16 C           3.0291   -2.4287    0.0000 C.2     1  UNL1       -0.0952
     17 H           3.8881    2.6530    0.0000 H       1  UNL1        0.0309
     18 H           5.4088   -0.5486    0.0000 H       1  UNL1        0.0307
     19 H           3.0672    1.5272    0.0000 H       1  UNL1        0.0313
     20 H           2.8952    0.7734    0.0000 H       1  UNL1        0.0313
     21 H           4.4867   -1.9694    0.0000 H       1  UNL1        0.0322
     22 H           5.0609   -1.3709    0.0000 H       1  UNL1        0.0322
     23 H           5.6358    2.0933    0.0000 H       1  UNL1        0.0268
     24 H           4.9393    2.4287    0.0000 H       1  UNL1        0.0268
     25 H           6.2593    0.7734    0.0000 H       1  UNL1        0.0268
     26 H           6.0873    1.5272    0.0000 H       1  UNL1        0.0268
     27 H           5.9686    1.0491    0.0000 H       1  UNL1        0.0235
     28 H           6.0624    1.9209    0.0000 H       1  UNL1        0.0235
     29 H           5.1906    2.0147    0.0000 H       1  UNL1        0.0235
     30 H           5.6630   -0.0548    0.0000 H       1  UNL1        0.0235
     31 H           6.4077    0.4079    0.0000 H       1  UNL1        0.0235
     32 H           5.9450    1.1527    0.0000 H       1  UNL1        0.0235
     33 H           5.8735   -1.0407    0.0000 H       1  UNL1        0.0233
     34 H           6.7448   -0.9425    0.0000 H       1  UNL1        0.0233
     35 H           6.6466   -0.0712    0.0000 H       1  UNL1        0.0233
     36 H           2.0822    0.0943    0.0000 H       1  UNL1        0.0278
     37 H           1.3855   -0.4381    0.0000 H       1  UNL1        0.0278
     38 H           1.9178   -1.1348    0.0000 H       1  UNL1        0.0278
     39 H           2.4108   -2.4751    0.0000 H       1  UNL1        0.0538
     40 H           3.3784   -2.9410    0.0000 H       1  UNL1        0.0538
@<TRIPOS>BOND
     1     1     2    1
     2     1     4    1
     3     1     5    1
     4     1     7    1
     5     2     3    1
     6     2    10    1
     7     2    11    1
     8     3     6    1
     9     3     8    1
    10     3    17    1
    11     4     9    1
    12     4    14    1
    13     4    18    1
    14     5     6    1
    15     5    12    2
    16     6    19    1
    17     6    20    1
    18     7    13    1
    19     7    21    1
    20     7    22    1
    21     8     9    1
    22     8    23    1
    23     8    24    1
    24     9    25    1
    25     9    26    1
    26    10    27    1
    27    10    28    1
    28    10    29    1
    29    11    30    1
    30    11    31    1
    31    11    32    1
    32    12    13    1
    33    12    15    1
    34    13    16    2
    35    14    33    1
    36    14    34    1
    37    14    35    1
    38    15    36    1
    39    15    37    1
    40    15    38    1
    41    16    39    1
    42    16    40    1
