@<TRIPOS>MOLECULE
IMPHY010148
 28 29 0 0 0
SMALL
GASTEIGER

@<TRIPOS>ATOM
      1 O           4.2690    1.6550    0.0000 O.3     1  UNL1       -0.3875
      2 O           6.3919    1.4102    0.0000 O.3     1  UNL1       -0.3901
      3 O           2.5369    0.6550    0.0000 O.3     1  UNL1       -0.3866
      4 O           2.5369   -1.3450    0.0000 O.3     1  UNL1       -0.3879
      5 N           5.1350   -0.8450    0.0000 N.3     1  UNL1       -0.2920
      6 C           5.1350    0.1550    0.0000 C.3     1  UNL1        0.0650
      7 C           4.2690    0.6550    0.0000 C.3     1  UNL1        0.1013
      8 C           6.0812    0.4597    0.0000 C.3     1  UNL1        0.0744
      9 C           6.0812   -1.1497    0.0000 C.3     1  UNL1        0.0018
     10 C           4.2690   -1.3450    0.0000 C.3     1  UNL1        0.0279
     11 C           3.4030    0.1550    0.0000 C.3     1  UNL1        0.1095
     12 C           6.6648   -0.3450    0.0000 C.3     1  UNL1       -0.0125
     13 C           3.4030   -0.8450    0.0000 C.3     1  UNL1        0.0962
     14 H           5.2250    1.0002    0.0000 H       1  UNL1        0.0514
     15 H           4.8059    0.9650    0.0000 H       1  UNL1        0.0636
     16 H           5.6438    0.8991    0.0000 H       1  UNL1        0.0610
     17 H           5.8302   -1.7166    0.0000 H       1  UNL1        0.0427
     18 H           6.6186   -1.4590    0.0000 H       1  UNL1        0.0427
     19 H           3.8705   -1.8200    0.0000 H       1  UNL1        0.0453
     20 H           4.6675   -1.8200    0.0000 H       1  UNL1        0.0453
     21 H           3.4030    0.7750    0.0000 H       1  UNL1        0.0646
     22 H           7.1257   -0.7597    0.0000 H       1  UNL1        0.0303
     23 H           7.1257    0.0697    0.0000 H       1  UNL1        0.0303
     24 H           3.4030   -1.4650    0.0000 H       1  UNL1        0.0633
     25 H           3.7320    1.9650    0.0000 H       1  UNL1        0.2100
     26 H           6.9986    1.5381    0.0000 H       1  UNL1        0.2098
     27 H           2.0000    0.3450    0.0000 H       1  UNL1        0.2100
     28 H           2.5369   -1.9650    0.0000 H       1  UNL1        0.2099
@<TRIPOS>BOND
     1     7     1    1
     2     1    25    1
     3     8     2    1
     4     2    26    1
     5    11     3    1
     6     3    27    1
     7    13     4    1
     8     4    28    1
     9     5     6    1
    10     5     9    1
    11     5    10    1
    12     6     7    1
    13     6     8    1
    14     6    14    1
    15     7    11    1
    16     7    15    1
    17     8    12    1
    18     8    16    1
    19     9    12    1
    20     9    17    1
    21     9    18    1
    22    10    13    1
    23    10    19    1
    24    10    20    1
    25    11    13    1
    26    11    21    1
    27    12    22    1
    28    12    23    1
    29    13    24    1
