@<TRIPOS>MOLECULE
IMPHY013520
 40 42 0 0 0
SMALL
GASTEIGER

@<TRIPOS>ATOM
      1 O           5.5987   -1.3917    0.0000 O.3     1  UNL1       -0.4547
      2 O           2.7364    0.9566    0.0000 O.3     1  UNL1       -0.4544
      3 O           2.9138   -0.5926    0.0000 O.3     1  UNL1       -0.3812
      4 O           5.8774   -3.1518    0.0000 O.2     1  UNL1       -0.2508
      5 O           2.0000    2.5731    0.0000 O.2     1  UNL1       -0.2453
      6 C           4.7896   -0.8039    0.0000 C.3     1  UNL1        0.1481
      7 C           3.8887   -0.3700    0.0000 C.3     1  UNL1        0.1401
      8 C           5.6906   -0.3700    0.0000 C.3     1  UNL1       -0.0009
      9 C           3.6662    0.6049    0.0000 C.3     1  UNL1        0.1423
     10 C           4.2896    1.3867    0.0000 C.3     1  UNL1        0.0303
     11 C           3.9806   -1.3917    0.0000 C.3     1  UNL1        0.0004
     12 C           5.9131    0.6049    0.0000 C.3     1  UNL1       -0.0461
     13 C           5.2896    1.3867    0.0000 C.3     1  UNL1       -0.0421
     14 C           3.3050   -1.1820    0.0000 C.3     1  UNL1       -0.0287
     15 C           4.2896   -2.3428    0.0000 C.3     1  UNL1        0.0487
     16 C           6.4724   -0.9935    0.0000 C.3     1  UNL1       -0.0587
     17 C           3.7399    2.2149    0.0000 C.2     1  UNL1        0.0362
     18 C           5.2896   -2.3428    0.0000 C.2     1  UNL1        0.3078
     19 C           2.7818    1.9496    0.0000 C.2     1  UNL1        0.3353
     20 C           4.0896    3.1518    0.0000 C.2     1  UNL1       -0.0883
     21 H           6.2758   -0.1653    0.0000 H       1  UNL1        0.0338
     22 H           3.0253    0.0465    0.0000 H       1  UNL1        0.0770
     23 H           4.6915    2.1357    0.0000 H       1  UNL1        0.0388
     24 H           3.6706   -0.8548    0.0000 H       1  UNL1        0.0310
     25 H           3.4142   -1.6439    0.0000 H       1  UNL1        0.0310
     26 H           6.4717    0.3359    0.0000 H       1  UNL1        0.0269
     27 H           6.2997    1.0896    0.0000 H       1  UNL1        0.0269
     28 H           5.8482    1.6557    0.0000 H       1  UNL1        0.0272
     29 H           5.1517    1.9912    0.0000 H       1  UNL1        0.0272
     30 H           2.8016   -0.8201    0.0000 H       1  UNL1        0.0260
     31 H           2.9431   -1.6854    0.0000 H       1  UNL1        0.0260
     32 H           3.8084   -1.5439    0.0000 H       1  UNL1        0.0260
     33 H           3.6832   -2.4717    0.0000 H       1  UNL1        0.0379
     34 H           4.3544   -2.9594    0.0000 H       1  UNL1        0.0379
     35 H           6.0859   -1.4783    0.0000 H       1  UNL1        0.0234
     36 H           6.9572   -1.3801    0.0000 H       1  UNL1        0.0234
     37 H           6.8590   -0.5088    0.0000 H       1  UNL1        0.0234
     38 H           2.4920   -0.1381    0.0000 H       1  UNL1        0.2105
     39 H           4.7011    3.2544    0.0000 H       1  UNL1        0.0540
     40 H           3.6950    3.6300    0.0000 H       1  UNL1        0.0540
@<TRIPOS>BOND
     1     1     6    1
     2     1    18    1
     3     2     9    1
     4     2    19    1
     5     7     3    1
     6     3    38    1
     7     4    18    2
     8     5    19    2
     9     6     7    1
    10     6     8    1
    11     6    11    1
    12     7     9    1
    13     7    14    1
    14     8    12    1
    15     8    16    1
    16     8    21    1
    17     9    10    1
    18     9    22    1
    19    10    13    1
    20    10    17    1
    21    10    23    1
    22    11    15    1
    23    11    24    1
    24    11    25    1
    25    12    13    1
    26    12    26    1
    27    12    27    1
    28    13    28    1
    29    13    29    1
    30    14    30    1
    31    14    31    1
    32    14    32    1
    33    15    18    1
    34    15    33    1
    35    15    34    1
    36    16    35    1
    37    16    36    1
    38    16    37    1
    39    17    19    1
    40    17    20    2
    41    20    39    1
    42    20    40    1
