@<TRIPOS>MOLECULE
IMPHY005093
 45 49 0 0 0
SMALL
GASTEIGER

@<TRIPOS>ATOM
      1 O           8.7939   -1.5254    0.0000 O.3     1  UNL1       -0.4607
      2 O           8.5210    0.2299    0.0000 O.2     1  UNL1       -0.2453
      3 O           2.8680   -2.5495    0.0000 O.3     1  UNL1       -0.4914
      4 O           2.8680   -0.5012    0.0000 O.3     1  UNL1       -0.4914
      5 O           8.0011    2.6417    0.0000 O.3     1  UNL1       -0.4526
      6 O           6.6073    3.4464    0.0000 O.3     1  UNL1       -0.4526
      7 C           7.2641   -2.0254    0.0000 C.3     1  UNL1        0.0297
      8 C           6.3981   -2.5254    0.0000 C.3     1  UNL1       -0.0168
      9 C           7.2641   -1.0254    0.0000 C.2     1  UNL1        0.0514
     10 C           6.3981   -0.5254    0.0000 C.2     1  UNL1        0.0001
     11 C           8.2103   -2.3301    0.0000 C.3     1  UNL1        0.1001
     12 C           5.5320   -2.0254    0.0000 C.ar    1  UNL1       -0.0353
     13 C           5.5320   -1.0254    0.0000 C.ar    1  UNL1       -0.0099
     14 C           8.2103   -0.7206    0.0000 C.2     1  UNL1        0.3362
     15 C           6.3981    0.4746    0.0000 C.ar    1  UNL1       -0.0131
     16 C           4.6381   -2.5600    0.0000 C.ar    1  UNL1       -0.0125
     17 C           4.6381   -0.4907    0.0000 C.ar    1  UNL1       -0.0083
     18 C           3.7320   -2.0462    0.0000 C.ar    1  UNL1        0.1618
     19 C           3.7320   -1.0046    0.0000 C.ar    1  UNL1        0.1621
     20 C           7.2641    0.9746    0.0000 C.ar    1  UNL1       -0.0084
     21 C           5.5320    0.9746    0.0000 C.ar    1  UNL1       -0.0503
     22 C           7.2641    1.9746    0.0000 C.ar    1  UNL1        0.1668
     23 C           6.3981    2.4746    0.0000 C.ar    1  UNL1        0.1663
     24 C           5.5320    1.9746    0.0000 C.ar    1  UNL1       -0.0156
     25 C           7.5960    3.5495    0.0000 C.3     1  UNL1        0.2332
     26 C           2.8718   -3.5495    0.0000 C.3     1  UNL1        0.0790
     27 C           2.0000   -0.9979    0.0000 C.3     1  UNL1        0.0790
     28 H           7.3540   -2.8706    0.0000 H       1  UNL1        0.0387
     29 H           5.9995   -3.0003    0.0000 H       1  UNL1        0.0320
     30 H           6.7966   -3.0003    0.0000 H       1  UNL1        0.0320
     31 H           7.9593   -2.8970    0.0000 H       1  UNL1        0.0704
     32 H           8.7477   -2.6393    0.0000 H       1  UNL1        0.0704
     33 H           4.6453   -3.1800    0.0000 H       1  UNL1        0.0658
     34 H           4.6453    0.1293    0.0000 H       1  UNL1        0.0661
     35 H           7.8010    0.6646    0.0000 H       1  UNL1        0.0661
     36 H           4.9951    0.6646    0.0000 H       1  UNL1        0.0625
     37 H           4.9951    2.2846    0.0000 H       1  UNL1        0.0655
     38 H           8.1856    3.7413    0.0000 H       1  UNL1        0.1166
     39 H           7.4673    4.1560    0.0000 H       1  UNL1        0.1166
     40 H           2.2518   -3.5519    0.0000 H       1  UNL1        0.0660
     41 H           2.8742   -4.1695    0.0000 H       1  UNL1        0.0660
     42 H           3.4918   -3.5471    0.0000 H       1  UNL1        0.0660
     43 H           1.6921   -0.4597    0.0000 H       1  UNL1        0.0660
     44 H           1.4619   -1.3058    0.0000 H       1  UNL1        0.0660
     45 H           2.3079   -1.5360    0.0000 H       1  UNL1        0.0660
@<TRIPOS>BOND
     1     1    11    1
     2     1    14    1
     3     2    14    2
     4     3    18    1
     5     3    26    1
     6     4    19    1
     7     4    27    1
     8     5    22    1
     9     5    25    1
    10     6    23    1
    11     6    25    1
    12     7     8    1
    13     7     9    1
    14     7    11    1
    15     7    28    1
    16     8    12    1
    17     8    29    1
    18     8    30    1
    19     9    10    2
    20     9    14    1
    21    10    13    1
    22    10    15    1
    23    11    31    1
    24    11    32    1
    25    12    13   ar
    26    12    16   ar
    27    13    17   ar
    28    15    20   ar
    29    15    21   ar
    30    16    18   ar
    31    16    33    1
    32    17    19   ar
    33    17    34    1
    34    18    19   ar
    35    20    22   ar
    36    20    35    1
    37    21    24   ar
    38    21    36    1
    39    22    23   ar
    40    23    24   ar
    41    24    37    1
    42    25    38    1
    43    25    39    1
    44    26    40    1
    45    26    41    1
    46    26    42    1
    47    27    43    1
    48    27    44    1
    49    27    45    1
