@<TRIPOS>MOLECULE
IMPHY006776
 48 51 0 0 0
SMALL
GASTEIGER

@<TRIPOS>ATOM
      1 O           5.0294   -1.9174    0.0000 O.3     1  UNL1       -0.4832
      2 O           2.6200   -0.5433    0.0000 O.3     1  UNL1       -0.3911
      3 O           6.7894    1.1173    0.0000 O.3     1  UNL1       -0.4940
      4 O           8.5493   -1.9174    0.0000 O.2     1  UNL1       -0.4215
      5 O          10.3195   -1.9068    0.0000 O.2     1  UNL1       -0.2445
      6 O          11.1913   -1.3552    0.0000 O.3     1  UNL1       -0.5060
      7 O          12.9118    1.6515    0.0000 O.3     1  UNL1       -0.5066
      8 C           4.1233   -1.4035    0.0000 C.3     1  UNL1        0.1310
      9 C           4.1233   -0.3619    0.0000 C.3     1  UNL1       -0.0068
     10 C           5.0294    0.1520    0.0000 C.3     1  UNL1       -0.0170
     11 C           5.9233   -0.3827    0.0000 C.ar    1  UNL1        0.0368
     12 C           5.9233   -1.3827    0.0000 C.ar    1  UNL1        0.1316
     13 C           3.1233   -1.4074    0.0000 C.3     1  UNL1        0.0837
     14 C           3.6267   -2.2715    0.0000 C.3     1  UNL1       -0.0227
     15 C           6.7894    0.1173    0.0000 C.ar    1  UNL1        0.1374
     16 C           7.6554   -0.3827    0.0000 C.ar    1  UNL1        0.0603
     17 C           6.7894   -1.8827    0.0000 C.ar    1  UNL1        0.0236
     18 C           7.6554   -1.3827    0.0000 C.ar    1  UNL1        0.1461
     19 C           8.5493    0.1520    0.0000 C.ar    1  UNL1       -0.0329
     20 C           9.4554   -0.3619    0.0000 C.ar    1  UNL1        0.0708
     21 C           9.4554   -1.4035    0.0000 C.ar    1  UNL1        0.3452
     22 C          10.3195    0.1415    0.0000 C.ar    1  UNL1        0.0306
     23 C           5.9233    1.6173    0.0000 C.3     1  UNL1        0.0788
     24 C          11.1874   -0.3552    0.0000 C.ar    1  UNL1        0.1282
     25 C          10.3156    1.1414    0.0000 C.ar    1  UNL1       -0.0469
     26 C          12.0515    0.1481    0.0000 C.ar    1  UNL1        0.0219
     27 C          11.1797    1.6448    0.0000 C.ar    1  UNL1       -0.0194
     28 C          12.0477    1.1481    0.0000 C.ar    1  UNL1        0.1204
     29 H           3.9143    0.2218    0.0000 H       1  UNL1        0.0307
     30 H           3.5125   -0.4680    0.0000 H       1  UNL1        0.0307
     31 H           5.4340    0.6218    0.0000 H       1  UNL1        0.0317
     32 H           4.6358    0.6310    0.0000 H       1  UNL1        0.0317
     33 H           2.5415   -1.6217    0.0000 H       1  UNL1        0.0597
     34 H           3.2333   -2.0175    0.0000 H       1  UNL1        0.0597
     35 H           3.0885   -1.9635    0.0000 H       1  UNL1        0.0269
     36 H           3.3187   -2.8096    0.0000 H       1  UNL1        0.0269
     37 H           4.1648   -2.5794    0.0000 H       1  UNL1        0.0269
     38 H           6.7894   -2.5027    0.0000 H       1  UNL1        0.0691
     39 H           8.5422    0.7719    0.0000 H       1  UNL1        0.0634
     40 H           2.0000   -0.5457    0.0000 H       1  UNL1        0.2096
     41 H           6.2333    2.1542    0.0000 H       1  UNL1        0.0660
     42 H           5.3864    1.9273    0.0000 H       1  UNL1        0.0660
     43 H           5.6133    1.0804    0.0000 H       1  UNL1        0.0660
     44 H           9.7775    1.4494    0.0000 H       1  UNL1        0.0626
     45 H          12.5896   -0.1598    0.0000 H       1  UNL1        0.0691
     46 H          11.1773    2.2648    0.0000 H       1  UNL1        0.0654
     47 H          11.7294   -1.6631    0.0000 H       1  UNL1        0.2922
     48 H          12.9094    2.2715    0.0000 H       1  UNL1        0.2921
@<TRIPOS>BOND
     1     1     8    1
     2     1    12    1
     3     2    13    1
     4     2    40    1
     5     3    15    1
     6     3    23    1
     7     4    18   ar
     8     4    21   ar
     9     5    21    2
    10     6    24    1
    11     6    47    1
    12     7    28    1
    13     7    48    1
    14     8     9    1
    15     8    13    1
    16     8    14    1
    17     9    10    1
    18     9    29    1
    19     9    30    1
    20    10    11    1
    21    10    31    1
    22    10    32    1
    23    11    12   ar
    24    11    15   ar
    25    12    17   ar
    26    13    33    1
    27    13    34    1
    28    14    35    1
    29    14    36    1
    30    14    37    1
    31    15    16   ar
    32    16    18   ar
    33    16    19   ar
    34    17    18   ar
    35    17    38    1
    36    19    20   ar
    37    19    39    1
    38    20    21   ar
    39    20    22    1
    40    22    24   ar
    41    22    25   ar
    42    23    41    1
    43    23    42    1
    44    23    43    1
    45    24    26   ar
    46    25    27   ar
    47    25    44    1
    48    26    28   ar
    49    26    45    1
    50    27    28   ar
    51    27    46    1
