@<TRIPOS>MOLECULE
IMPHY015988
 53 57 0 0 0
SMALL
GASTEIGER

@<TRIPOS>ATOM
      1 O           8.2982    0.5877    0.0000 O.3     1  UNL1       -0.4824
      2 O          11.8342    0.5599    0.0000 O.3     1  UNL1       -0.4815
      3 O           3.9080    2.1220    0.0000 O.3     1  UNL1       -0.4816
      4 O           8.3098   -2.4815    0.0000 O.2     1  UNL1       -0.2918
      5 C           7.3922    0.0739    0.0000 C.3     1  UNL1        0.1322
      6 C           7.3922   -0.9677    0.0000 C.3     1  UNL1        0.0519
      7 C           9.1922    0.0531    0.0000 C.ar    1  UNL1        0.1425
      8 C           6.5281    0.5772    0.0000 C.ar    1  UNL1       -0.0062
      9 C          11.8423    1.6015    0.0000 C.3     1  UNL1        0.1235
     10 C          10.0582    0.5531    0.0000 C.ar    1  UNL1        0.0589
     11 C           9.1922   -0.9469    0.0000 C.ar    1  UNL1        0.0600
     12 C           8.2982   -1.4816    0.0000 C.2     1  UNL1        0.1705
     13 C           3.0000    1.6117    0.0000 C.3     1  UNL1        0.1235
     14 C          10.9242    0.0531    0.0000 C.ar    1  UNL1        0.1324
     15 C           4.7960    0.5839    0.0000 C.ar    1  UNL1        0.0169
     16 C           5.6601    0.0806    0.0000 C.ar    1  UNL1       -0.0444
     17 C           4.7999    1.5839    0.0000 C.ar    1  UNL1        0.1289
     18 C          10.9402    2.1224    0.0000 C.2     1  UNL1       -0.0408
     19 C          10.0421    1.5946    0.0000 C.2     1  UNL1       -0.0478
     20 C           6.5319    1.5772    0.0000 C.ar    1  UNL1       -0.0516
     21 C          10.0582   -1.4469    0.0000 C.ar    1  UNL1       -0.0442
     22 C          10.9242   -0.9469    0.0000 C.ar    1  UNL1       -0.0184
     23 C           2.9960    0.5700    0.0000 C.2     1  UNL1       -0.0409
     24 C          12.3456    2.4656    0.0000 C.3     1  UNL1       -0.0215
     25 C          12.8422    1.5977    0.0000 C.3     1  UNL1       -0.0215
     26 C           5.6678    2.0806    0.0000 C.ar    1  UNL1       -0.0189
     27 C           3.9000    0.0527    0.0000 C.2     1  UNL1       -0.0513
     28 C           2.0000    1.6194    0.0000 C.3     1  UNL1       -0.0215
     29 C           2.5067    2.4815    0.0000 C.3     1  UNL1       -0.0215
     30 H           6.8546   -0.2351    0.0000 H       1  UNL1        0.0789
     31 H           6.7813   -0.8616    0.0000 H       1  UNL1        0.0385
     32 H           7.1831   -1.5514    0.0000 H       1  UNL1        0.0385
     33 H           5.6577   -0.5394    0.0000 H       1  UNL1        0.0628
     34 H          10.9378    2.7423    0.0000 H       1  UNL1        0.0611
     35 H           9.5016    1.8984    0.0000 H       1  UNL1        0.0624
     36 H           7.0700    1.8852    0.0000 H       1  UNL1        0.0623
     37 H          10.0582   -2.0669    0.0000 H       1  UNL1        0.0627
     38 H          11.4612   -1.2569    0.0000 H       1  UNL1        0.0654
     39 H           2.4590    0.2600    0.0000 H       1  UNL1        0.0611
     40 H          12.8813    2.1536    0.0000 H       1  UNL1        0.0271
     41 H          12.6577    3.0014    0.0000 H       1  UNL1        0.0271
     42 H          11.8098    2.7777    0.0000 H       1  UNL1        0.0271
     43 H          12.8399    0.9777    0.0000 H       1  UNL1        0.0271
     44 H          13.4622    1.5953    0.0000 H       1  UNL1        0.0271
     45 H          12.8446    2.2177    0.0000 H       1  UNL1        0.0271
     46 H           5.6702    2.7006    0.0000 H       1  UNL1        0.0654
     47 H           3.9048   -0.5673    0.0000 H       1  UNL1        0.0623
     48 H           2.0048    2.2394    0.0000 H       1  UNL1        0.0271
     49 H           1.3800    1.6241    0.0000 H       1  UNL1        0.0271
     50 H           1.9952    0.9994    0.0000 H       1  UNL1        0.0271
     51 H           3.0460    2.7874    0.0000 H       1  UNL1        0.0271
     52 H           2.2008    3.0208    0.0000 H       1  UNL1        0.0271
     53 H           1.9674    2.1757    0.0000 H       1  UNL1        0.0271
@<TRIPOS>BOND
     1     1     5    1
     2     1     7    1
     3     2     9    1
     4     2    14    1
     5     3    13    1
     6     3    17    1
     7     4    12    2
     8     5     6    1
     9     5     8    1
    10     5    30    1
    11     6    12    1
    12     6    31    1
    13     6    32    1
    14     7    10   ar
    15     7    11   ar
    16     8    16   ar
    17     8    20   ar
    18     9    18    1
    19     9    24    1
    20     9    25    1
    21    10    14   ar
    22    10    19    1
    23    11    12    1
    24    11    21   ar
    25    13    23    1
    26    13    28    1
    27    13    29    1
    28    14    22   ar
    29    15    16   ar
    30    15    17   ar
    31    15    27    1
    32    16    33    1
    33    17    26   ar
    34    18    19    2
    35    18    34    1
    36    19    35    1
    37    20    26   ar
    38    20    36    1
    39    21    22   ar
    40    21    37    1
    41    22    38    1
    42    23    27    2
    43    23    39    1
    44    24    40    1
    45    24    41    1
    46    24    42    1
    47    25    43    1
    48    25    44    1
    49    25    45    1
    50    26    46    1
    51    27    47    1
    52    28    48    1
    53    28    49    1
    54    28    50    1
    55    29    51    1
    56    29    52    1
    57    29    53    1
