@<TRIPOS>MOLECULE
IMPHY008814
 55 60 0 0 0
SMALL
GASTEIGER

@<TRIPOS>ATOM
      1 O           6.0061   -3.8053    0.0000 O.3     1  UNL1       -0.3311
      2 O          12.9667    1.4528    0.0000 O.3     1  UNL1       -0.3334
      3 O           7.9027   -0.7532    0.0000 O.3     1  UNL1       -0.2204
      4 O           4.2740   -3.7986    0.0000 O.3     1  UNL1       -0.3256
      5 O          14.2559    2.6095    0.0000 O.3     1  UNL1       -0.3256
      6 O           6.0138   -1.8053    0.0000 O.3     1  UNL1       -0.2149
      7 O          14.3024   -0.0358    0.0000 O.3     1  UNL1       -0.2149
      8 O           4.2856   -0.7987    0.0000 O.3     1  UNL1       -0.2174
      9 O          16.2594    0.3766    0.0000 O.3     1  UNL1       -0.2174
     10 O           2.5497   -1.7920    0.0000 O.3     1  UNL1       -0.2176
     11 O          16.8807    2.2777    0.0000 O.3     1  UNL1       -0.2176
     12 O           2.5381   -4.7920    0.0000 O.3     1  UNL1       -0.2176
     13 O          14.8772    4.5106    0.0000 O.3     1  UNL1       -0.2176
     14 C          10.5331   -2.2530    0.0000 C.3     1  UNL1        0.0001
     15 C          11.3991   -1.7530    0.0000 C.3     1  UNL1        0.0001
     16 C           9.6671   -1.7530    0.0000 C.3     1  UNL1        0.0024
     17 C           8.7571   -2.2598    0.0000 C.3     1  UNL1        0.0308
     18 C          11.3991   -0.7530    0.0000 C.3     1  UNL1        0.0023
     19 C           8.7491   -3.3014    0.0000 C.3     1  UNL1        0.0047
     20 C          10.5492   -3.2945    0.0000 C.3     1  UNL1        0.0000
     21 C          12.3454   -0.4483    0.0000 C.3     1  UNL1        0.0251
     22 C           9.6671   -0.7530    0.0000 C.3     1  UNL1        0.0001
     23 C          12.3454   -2.0577    0.0000 C.3     1  UNL1        0.0001
     24 C          10.5331   -0.2530    0.0000 C.3     1  UNL1        0.0001
     25 C           9.6511   -3.8222    0.0000 C.3     1  UNL1        0.0002
     26 C           7.8136   -3.8512    0.0000 C.3     1  UNL1        0.0252
     27 C          12.9290   -1.2530    0.0000 C.3     1  UNL1        0.0023
     28 C           7.8303   -1.6958    0.0000 C.3     1  UNL1        0.0050
     29 C          11.1759   -3.0190    0.0000 C.3     1  UNL1        0.0000
     30 C          11.7413   -2.6926    0.0000 C.3     1  UNL1        0.0000
     31 C           8.7648   -1.2599    0.0000 C.3     1  UNL1        0.1819
     32 C           6.8740   -3.3087    0.0000 C.3     1  UNL1        0.1177
     33 C          12.6560    0.5023    0.0000 C.3     1  UNL1        0.0956
     34 C           6.8824   -2.2237    0.0000 C.3     1  UNL1        0.0297
     35 C           8.3170   -4.7153    0.0000 C.3     1  UNL1        0.0024
     36 C           7.3170   -4.7191    0.0000 C.3     1  UNL1        0.0024
     37 C          13.6065    0.1916    0.0000 C.3     1  UNL1        0.0319
     38 C          11.7055    0.8129    0.0000 C.3     1  UNL1        0.0297
     39 C          13.8128   -0.7869    0.0000 C.3     1  UNL1        0.0278
     40 C           5.1420   -3.3020    0.0000 C.3     1  UNL1        0.2694
     41 C          13.9452    1.6590    0.0000 C.3     1  UNL1        0.2693
     42 C           5.1458   -2.3020    0.0000 C.3     1  UNL1        0.2406
     43 C          14.6130    0.9147    0.0000 C.3     1  UNL1        0.2406
     44 C          14.7633   -1.0976    0.0000 C.2     1  UNL1       -0.0345
     45 C           4.2817   -1.7987    0.0000 C.3     1  UNL1        0.2198
     46 C          15.5915    1.1209    0.0000 C.3     1  UNL1        0.2198
     47 C           3.4099   -3.2953    0.0000 C.3     1  UNL1        0.1835
     48 C          15.2344    2.8157    0.0000 C.3     1  UNL1        0.1835
     49 C           3.4138   -2.2953    0.0000 C.3     1  UNL1        0.2144
     50 C          15.9022    2.0714    0.0000 C.3     1  UNL1        0.2144
     51 C          14.9695   -2.0761    0.0000 C.2     1  UNL1       -0.0478
     52 C           2.5420   -3.7920    0.0000 C.3     1  UNL1        0.2142
     53 C          15.5450    3.7663    0.0000 C.3     1  UNL1        0.2142
     54 C          14.2252   -2.7439    0.0000 C.3     1  UNL1        0.0260
     55 C          15.9200   -2.3867    0.0000 C.3     1  UNL1        0.0260
@<TRIPOS>BOND
     1     1    32    1
     2     2    33    1
     3     3    31    1
     4     4    40    1
     5     4    47    1
     6     5    41    1
     7     5    48    1
     8    12    52    1
     9    13    53    1
    10    14    15    1
    11    14    16    1
    12    14    20    1
    13    14    29    1
    14    15    18    1
    15    15    23    1
    16    15    30    1
    17    16    17    1
    18    16    22    1
    19    17    19    1
    20    17    28    1
    21    17    31    1
    22    18    21    1
    23    18    24    1
    24    19    25    1
    25    19    26    1
    26    20    25    1
    27    21    27    1
    28    21    33    1
    29    22    24    1
    30    23    27    1
    31    26    32    1
    32    26    35    1
    33    26    36    1
    34    28    34    1
    35    32    34    1
    36    33    37    1
    37    33    38    1
    38    37    39    1
    39    39    44    1
    40    40     1    1
    41    40    42    1
    42    41     2    1
    43    41    43    1
    44    42     6    1
    45    42    45    1
    46    43     7    1
    47    43    46    1
    48    44    51    2
    49    45     8    1
    50    45    49    1
    51    46     9    1
    52    46    50    1
    53    47    49    1
    54    47    52    1
    55    48    50    1
    56    48    53    1
    57    49    10    1
    58    50    11    1
    59    51    54    1
    60    51    55    1
