@<TRIPOS>MOLECULE
IMPHY000260
 52 54 0 0 0
SMALL
GASTEIGER

@<TRIPOS>ATOM
      1 O           7.7619   -3.4571    0.0000 O.3     1  UNL1       -0.4535
      2 O           4.3211    3.3726    0.0000 O.3     1  UNL1       -0.3783
      3 O           9.2619   -2.5911    0.0000 O.2     1  UNL1       -0.2263
      4 N           7.7619   -1.7250    0.0000 N.am    1  UNL1       -0.2634
      5 N           4.6783    0.0683    0.0000 N.ar    1  UNL1       -0.3541
      6 C           6.7619    0.0070    0.0000 C.3     1  UNL1        0.0095
      7 C           6.2619   -0.8590    0.0000 C.3     1  UNL1       -0.0264
      8 C           7.7619    0.0070    0.0000 C.2     1  UNL1       -0.0489
      9 C           6.7619   -1.7250    0.0000 C.3     1  UNL1        0.0190
     10 C           8.2619   -0.8590    0.0000 C.3     1  UNL1        0.0394
     11 C           6.2619    0.8730    0.0000 C.2     1  UNL1       -0.0236
     12 C           5.2619    0.8730    0.0000 C.ar    1  UNL1        0.0489
     13 C           4.6783    1.6778    0.0000 C.ar    1  UNL1        0.0107
     14 C           8.2619    0.8730    0.0000 C.2     1  UNL1       -0.0858
     15 C           3.7320    1.3730    0.0000 C.ar    1  UNL1        0.0056
     16 C           3.7320    0.3730    0.0000 C.ar    1  UNL1        0.0472
     17 C           8.2619   -2.5911    0.0000 C.2     1  UNL1        0.4029
     18 C           6.7619    1.7391    0.0000 C.2     1  UNL1       -0.0930
     19 C           4.9889    2.6283    0.0000 C.3     1  UNL1        0.0749
     20 C           7.7619    1.7391    0.0000 C.3     1  UNL1       -0.0465
     21 C           2.8660    1.8730    0.0000 C.ar    1  UNL1       -0.0522
     22 C           2.8660   -0.1270    0.0000 C.ar    1  UNL1       -0.0378
     23 C           2.0000    1.3730    0.0000 C.ar    1  UNL1       -0.0611
     24 C           2.0000    0.3730    0.0000 C.ar    1  UNL1       -0.0598
     25 C           8.2619   -4.3231    0.0000 C.3     1  UNL1        0.0833
     26 C           4.6318    4.3231    0.0000 C.3     1  UNL1        0.0369
     27 H           7.0719    0.5439    0.0000 H       1  UNL1        0.0395
     28 H           5.7869   -0.4605    0.0000 H       1  UNL1        0.0289
     29 H           5.7869   -1.2575    0.0000 H       1  UNL1        0.0289
     30 H           6.1793   -1.9371    0.0000 H       1  UNL1        0.0466
     31 H           6.8695   -2.3356    0.0000 H       1  UNL1        0.0466
     32 H           8.7368   -1.2575    0.0000 H       1  UNL1        0.0512
     33 H           8.7368   -0.4605    0.0000 H       1  UNL1        0.0512
     34 H           8.8819    0.8730    0.0000 H       1  UNL1        0.0570
     35 H           4.8709   -0.5210    0.0000 H       1  UNL1        0.1659
     36 H           7.3819    1.7391    0.0000 H       1  UNL1        0.0538
     37 H           6.4519    2.2760    0.0000 H       1  UNL1        0.0538
     38 H           5.5359    2.3363    0.0000 H       1  UNL1        0.0611
     39 H           5.3715    3.1162    0.0000 H       1  UNL1        0.0611
     40 H           8.2988    2.0491    0.0000 H       1  UNL1        0.0272
     41 H           7.4519    2.2760    0.0000 H       1  UNL1        0.0272
     42 H           7.2249    1.4291    0.0000 H       1  UNL1        0.0272
     43 H           2.8660    2.4930    0.0000 H       1  UNL1        0.0624
     44 H           2.8660   -0.7470    0.0000 H       1  UNL1        0.0638
     45 H           1.4631    1.6830    0.0000 H       1  UNL1        0.0618
     46 H           1.4631    0.0630    0.0000 H       1  UNL1        0.0618
     47 H           7.7249   -4.6331    0.0000 H       1  UNL1        0.0661
     48 H           8.5719   -4.8600    0.0000 H       1  UNL1        0.0661
     49 H           8.7988   -4.0131    0.0000 H       1  UNL1        0.0661
     50 H           5.2211    4.1305    0.0000 H       1  UNL1        0.0524
     51 H           4.8244    4.9124    0.0000 H       1  UNL1        0.0524
     52 H           4.0424    4.5157    0.0000 H       1  UNL1        0.0524
@<TRIPOS>BOND
     1     1    17    1
     2     1    25    1
     3     2    19    1
     4     2    26    1
     5     3    17    2
     6     4     9    1
     7     4    10    1
     8     4    17   am
     9     5    12   ar
    10     5    16   ar
    11     5    35    1
    12     6     7    1
    13     6     8    1
    14     6    11    1
    15     6    27    1
    16     7     9    1
    17     7    28    1
    18     7    29    1
    19     8    10    1
    20     8    14    2
    21     9    30    1
    22     9    31    1
    23    10    32    1
    24    10    33    1
    25    11    12    1
    26    11    18    2
    27    12    13   ar
    28    13    15   ar
    29    13    19    1
    30    14    20    1
    31    14    34    1
    32    15    16   ar
    33    15    21   ar
    34    16    22   ar
    35    18    36    1
    36    18    37    1
    37    19    38    1
    38    19    39    1
    39    20    40    1
    40    20    41    1
    41    20    42    1
    42    21    23   ar
    43    21    43    1
    44    22    24   ar
    45    22    44    1
    46    23    24   ar
    47    23    45    1
    48    24    46    1
    49    25    47    1
    50    25    48    1
    51    25    49    1
    52    26    50    1
    53    26    51    1
    54    26    52    1
