@<TRIPOS>MOLECULE
IMPHY005882
 40 43 0 0 0
SMALL
GASTEIGER

@<TRIPOS>ATOM
      1 O           2.9182   -0.1320    0.0000 O.3     1  UNL1       -0.4907
      2 O           4.3455   -3.3713    0.0000 O.3     1  UNL1       -0.4907
      3 O           2.6884   -2.1673    0.0000 O.3     1  UNL1       -0.4885
      4 O           7.1518    2.9828    0.0000 O.2     1  UNL1       -0.2838
      5 O           5.4874    3.7815    0.0000 O.2     1  UNL1       -0.2838
      6 N           7.1527   -0.8511    0.0000 N.ar    1  UNL1       -0.3601
      7 C           5.4874   -0.9079    0.0000 C.ar    1  UNL1        0.0210
      8 C           4.6784   -0.3201    0.0000 C.ar    1  UNL1        0.0380
      9 C           6.2964   -0.3201    0.0000 C.ar    1  UNL1        0.0557
     10 C           4.9874    0.6310    0.0000 C.ar    1  UNL1       -0.0043
     11 C           5.9874    0.6310    0.0000 C.ar    1  UNL1        0.0105
     12 C           5.3945   -1.9454    0.0000 C.ar    1  UNL1        0.0316
     13 C           3.7204   -0.7291    0.0000 C.ar    1  UNL1        0.1735
     14 C           4.4462   -2.3764    0.0000 C.ar    1  UNL1        0.1730
     15 C           3.6035   -1.7641    0.0000 C.ar    1  UNL1        0.2048
     16 C           6.2981   -2.3910    0.0000 C.ar    1  UNL1       -0.0344
     17 C           4.3810    1.4019    0.0000 C.2     1  UNL1       -0.0495
     18 C           6.5937    1.4019    0.0000 C.2     1  UNL1       -0.0014
     19 C           7.1535   -1.8586    0.0000 C.ar    1  UNL1        0.0028
     20 C           4.6031    2.3572    0.0000 C.2     1  UNL1       -0.0105
     21 C           6.3716    2.3572    0.0000 C.2     1  UNL1        0.2259
     22 C           5.4874    2.7815    0.0000 C.2     1  UNL1        0.2253
     23 C           2.0000   -0.5281    0.0000 C.3     1  UNL1        0.0790
     24 C           3.4335   -3.7815    0.0000 C.3     1  UNL1        0.0790
     25 C           2.5800   -3.1614    0.0000 C.3     1  UNL1        0.0791
     26 H           7.6943   -0.5493    0.0000 H       1  UNL1        0.1654
     27 H           6.3286   -3.0103    0.0000 H       1  UNL1        0.0639
     28 H           3.7758    1.2672    0.0000 H       1  UNL1        0.0625
     29 H           7.1989    1.2672    0.0000 H       1  UNL1        0.0664
     30 H           7.6956   -2.1595    0.0000 H       1  UNL1        0.0807
     31 H           4.1194    2.7450    0.0000 H       1  UNL1        0.0657
     32 H           1.7544    0.0412    0.0000 H       1  UNL1        0.0660
     33 H           1.4307   -0.7737    0.0000 H       1  UNL1        0.0660
     34 H           2.2456   -1.0974    0.0000 H       1  UNL1        0.0660
     35 H           3.1792   -3.2161    0.0000 H       1  UNL1        0.0660
     36 H           2.8681   -4.0359    0.0000 H       1  UNL1        0.0660
     37 H           3.6879   -4.3470    0.0000 H       1  UNL1        0.0660
     38 H           1.9637   -3.0942    0.0000 H       1  UNL1        0.0660
     39 H           2.5128   -3.7778    0.0000 H       1  UNL1        0.0660
     40 H           3.1964   -3.2286    0.0000 H       1  UNL1        0.0660
@<TRIPOS>BOND
     1     1    13    1
     2     1    23    1
     3     2    14    1
     4     2    24    1
     5     3    15    1
     6     3    25    1
     7     4    21    2
     8     5    22    2
     9     6     9   ar
    10     6    19   ar
    11     6    26    1
    12     7     8   ar
    13     7     9    2
    14     7    12   ar
    15     8    10   ar
    16     8    13   ar
    17     9    11   ar
    18    10    11   ar
    19    10    17    1
    20    11    18    2
    21    12    14   ar
    22    12    16   ar
    23    13    15   ar
    24    14    15   ar
    25    16    19   ar
    26    16    27    1
    27    17    20    2
    28    17    28    1
    29    18    21    1
    30    18    29    1
    31    19    30    1
    32    20    22    1
    33    20    31    1
    34    21    22    1
    35    23    32    1
    36    23    33    1
    37    23    34    1
    38    24    35    1
    39    24    36    1
    40    24    37    1
    41    25    38    1
    42    25    39    1
    43    25    40    1
