@<TRIPOS>MOLECULE
IMPHY015387
 21 20 0 0 0
SMALL
GASTEIGER

@<TRIPOS>ATOM
      1 N           7.1962   -0.2500    0.0000 N.1     1  UNL1       -0.1966
      2 C           2.8660    0.2500    0.0000 C.3     1  UNL1       -0.0467
      3 C           3.7320    0.7500    0.0000 C.3     1  UNL1       -0.0498
      4 C           4.5981    0.2500    0.0000 C.3     1  UNL1       -0.0400
      5 C           2.0000    0.7500    0.0000 C.3     1  UNL1       -0.0627
      6 C           2.8660   -0.7500    0.0000 C.3     1  UNL1       -0.0627
      7 C           5.4641    0.7500    0.0000 C.3     1  UNL1        0.0348
      8 C           6.3301    0.2500    0.0000 C.1     1  UNL1        0.0625
      9 H           2.8660    0.8700    0.0000 H       1  UNL1        0.0295
     10 H           4.1306    1.2250    0.0000 H       1  UNL1        0.0268
     11 H           3.3335    1.2250    0.0000 H       1  UNL1        0.0268
     12 H           4.1996   -0.2249    0.0000 H       1  UNL1        0.0275
     13 H           4.9966   -0.2249    0.0000 H       1  UNL1        0.0275
     14 H           2.3100    1.2869    0.0000 H       1  UNL1        0.0232
     15 H           1.4631    1.0600    0.0000 H       1  UNL1        0.0232
     16 H           1.6900    0.2131    0.0000 H       1  UNL1        0.0232
     17 H           2.2460   -0.7500    0.0000 H       1  UNL1        0.0232
     18 H           2.8660   -1.3700    0.0000 H       1  UNL1        0.0232
     19 H           3.4860   -0.7500    0.0000 H       1  UNL1        0.0232
     20 H           5.8626    1.2250    0.0000 H       1  UNL1        0.0418
     21 H           5.0656    1.2250    0.0000 H       1  UNL1        0.0418
@<TRIPOS>BOND
     1     1     8    3
     2     2     3    1
     3     2     5    1
     4     2     6    1
     5     2     9    1
     6     3     4    1
     7     3    10    1
     8     3    11    1
     9     4     7    1
    10     4    12    1
    11     4    13    1
    12     5    14    1
    13     5    15    1
    14     5    16    1
    15     6    17    1
    16     6    18    1
    17     6    19    1
    18     7     8    1
    19     7    20    1
    20     7    21    1
