@<TRIPOS>MOLECULE
IMPHY000979
 36 38 0 0 0
SMALL
GASTEIGER

@<TRIPOS>ATOM
      1 O           3.7230   -0.3370    0.0000 O.3     1  UNL1       -0.4564
      2 O           4.5447    2.8284    0.0000 O.3     1  UNL1       -0.3907
      3 O           8.0559   -0.4172    0.0000 O.2     1  UNL1       -0.2876
      4 O           2.0000    0.0951    0.0000 O.2     1  UNL1       -0.2453
      5 O           5.1318   -2.9114    0.0000 O.3     1  UNL1       -0.3907
      6 C           4.5777    0.1706    0.0000 C.3     1  UNL1        0.1233
      7 C           4.3551    1.1456    0.0000 C.3     1  UNL1        0.0545
      8 C           5.4786   -0.2633    0.0000 C.3     1  UNL1        0.0490
      9 C           4.9786    1.9274    0.0000 C.3     1  UNL1        0.0693
     10 C           6.3796    0.1706    0.0000 C.2     1  UNL1        0.0090
     11 C           5.9786    1.9274    0.0000 C.3     1  UNL1       -0.0045
     12 C           5.6146   -1.2480    0.0000 C.2     1  UNL1       -0.0298
     13 C           6.6021    1.1456    0.0000 C.2     1  UNL1       -0.0627
     14 C           3.3648    1.2321    0.0000 C.2     1  UNL1        0.0386
     15 C           7.0647   -0.5497    0.0000 C.2     1  UNL1        0.1828
     16 C           2.9749    0.3177    0.0000 C.2     1  UNL1        0.3354
     17 C           6.5929   -1.4246    0.0000 C.2     1  UNL1       -0.0126
     18 C           4.8930   -1.9403    0.0000 C.3     1  UNL1        0.0664
     19 C           7.5770    1.3681    0.0000 C.3     1  UNL1       -0.0430
     20 C           2.8504    2.0896    0.0000 C.2     1  UNL1       -0.0882
     21 H           4.6147   -0.6786    0.0000 H       1  UNL1        0.0750
     22 H           4.0200    1.9267    0.0000 H       1  UNL1        0.0413
     23 H           4.7916   -0.7638    0.0000 H       1  UNL1        0.0432
     24 H           5.3085    2.4524    0.0000 H       1  UNL1        0.0604
     25 H           6.5372    2.1964    0.0000 H       1  UNL1        0.0335
     26 H           5.8407    2.5318    0.0000 H       1  UNL1        0.0335
     27 H           6.8619   -1.9832    0.0000 H       1  UNL1        0.0656
     28 H           4.5480   -1.4252    0.0000 H       1  UNL1        0.0604
     29 H           4.3258   -2.1906    0.0000 H       1  UNL1        0.0604
     30 H           7.7150    0.7636    0.0000 H       1  UNL1        0.0275
     31 H           8.1815    1.5060    0.0000 H       1  UNL1        0.0275
     32 H           7.4391    1.9725    0.0000 H       1  UNL1        0.0275
     33 H           4.8940    3.3406    0.0000 H       1  UNL1        0.2098
     34 H           3.1514    2.6317    0.0000 H       1  UNL1        0.0540
     35 H           2.2305    2.0793    0.0000 H       1  UNL1        0.0540
     36 H           4.6844   -3.3406    0.0000 H       1  UNL1        0.2098
@<TRIPOS>BOND
     1     1     6    1
     2     1    16    1
     3     9     2    1
     4     2    33    1
     5     3    15    2
     6     4    16    2
     7     5    18    1
     8     5    36    1
     9     6     7    1
    10     6     8    1
    11     6    21    1
    12     7     9    1
    13     7    14    1
    14     7    22    1
    15     8    10    1
    16     8    12    1
    17     8    23    1
    18     9    11    1
    19     9    24    1
    20    10    13    2
    21    10    15    1
    22    11    13    1
    23    11    25    1
    24    11    26    1
    25    12    17    2
    26    12    18    1
    27    13    19    1
    28    14    16    1
    29    14    20    2
    30    15    17    1
    31    17    27    1
    32    18    28    1
    33    18    29    1
    34    19    30    1
    35    19    31    1
    36    19    32    1
    37    20    34    1
    38    20    35    1
