@<TRIPOS>MOLECULE
IMPHY001221
 80 84 0 0 0
SMALL
GASTEIGER

@<TRIPOS>ATOM
      1 O           2.5357   -2.5933    0.0000 O.3     1  UNL1       -0.3912
      2 O          11.4608    0.4932    0.0000 O.2     1  UNL1       -0.3004
      3 C           7.0628   -1.0410    0.0000 C.3     1  UNL1       -0.0194
      4 C           6.1968   -0.5410    0.0000 C.3     1  UNL1       -0.0257
      5 C           5.2868   -1.0478    0.0000 C.3     1  UNL1       -0.0250
      6 C           7.9288   -0.5410    0.0000 C.3     1  UNL1       -0.0051
      7 C           5.2787   -2.0894    0.0000 C.3     1  UNL1       -0.0278
      8 C           7.0789   -2.0825    0.0000 C.3     1  UNL1       -0.0463
      9 C           6.1808   -2.6102    0.0000 C.3     1  UNL1       -0.0486
     10 C           7.9288    0.4590    0.0000 C.2     1  UNL1       -0.0630
     11 C           4.3433   -2.6391    0.0000 C.3     1  UNL1       -0.0056
     12 C           8.8228    0.9937    0.0000 C.3     1  UNL1       -0.0068
     13 C           6.1968    0.4590    0.0000 C.3     1  UNL1       -0.0306
     14 C           4.3599   -0.4837    0.0000 C.3     1  UNL1       -0.0447
     15 C           8.8228   -1.0756    0.0000 C.3     1  UNL1       -0.0425
     16 C           9.7288    0.4799    0.0000 C.3     1  UNL1        0.0325
     17 C           7.7056   -1.8070    0.0000 C.3     1  UNL1       -0.0585
     18 C           9.7288   -0.5618    0.0000 C.3     1  UNL1       -0.0396
     19 C           3.4037   -2.0966    0.0000 C.3     1  UNL1        0.0606
     20 C           7.0628    0.9590    0.0000 C.2     1  UNL1       -0.0836
     21 C           5.2945   -0.0478    0.0000 C.3     1  UNL1       -0.0590
     22 C           3.4120   -1.0117    0.0000 C.3     1  UNL1       -0.0258
     23 C           8.2709   -1.4806    0.0000 C.3     1  UNL1       -0.0553
     24 C           8.7977    2.0784    0.0000 C.3     1  UNL1       -0.0404
     25 C          10.6726    1.0151    0.0000 C.3     1  UNL1       -0.0399
     26 C           9.7288    2.6353    0.0000 C.3     1  UNL1       -0.0343
     27 C           3.8467   -3.5071    0.0000 C.3     1  UNL1       -0.0572
     28 C           4.8466   -3.5032    0.0000 C.3     1  UNL1       -0.0572
     29 C          10.6726    2.1001    0.0000 C.3     1  UNL1       -0.0470
     30 C          10.5987   -0.0135    0.0000 C.2     1  UNL1        0.1270
     31 C          10.2188    3.5071    0.0000 C.3     1  UNL1       -0.0598
     32 C           9.2188    3.4955    0.0000 C.3     1  UNL1       -0.0598
     33 H           6.9329   -0.1160    0.0000 H       1  UNL1        0.0315
     34 H           5.2820   -2.9394    0.0000 H       1  UNL1        0.0312
     35 H           7.2969   -2.6629    0.0000 H       1  UNL1        0.0271
     36 H           7.6880   -1.9670    0.0000 H       1  UNL1        0.0271
     37 H           5.7835   -3.0862    0.0000 H       1  UNL1        0.0268
     38 H           6.5818   -3.0831    0.0000 H       1  UNL1        0.0268
     39 H           9.5522    1.4300    0.0000 H       1  UNL1        0.0355
     40 H           5.9847    1.0416    0.0000 H       1  UNL1        0.0310
     41 H           5.5862    0.3514    0.0000 H       1  UNL1        0.0310
     42 H           4.7681   -0.0171    0.0000 H       1  UNL1        0.0271
     43 H           3.9700   -0.0017    0.0000 H       1  UNL1        0.0271
     44 H           8.4182   -1.5454    0.0000 H       1  UNL1        0.0274
     45 H           9.2164   -1.5546    0.0000 H       1  UNL1        0.0274
     46 H           7.2306   -2.2055    0.0000 H       1  UNL1        0.0235
     47 H           8.1041   -2.2820    0.0000 H       1  UNL1        0.0235
     48 H           8.1805   -1.4085    0.0000 H       1  UNL1        0.0235
     49 H           9.9379   -1.1455    0.0000 H       1  UNL1        0.0275
     50 H          10.3397   -0.4557    0.0000 H       1  UNL1        0.0275
     51 H           3.4025   -2.7166    0.0000 H       1  UNL1        0.0599
     52 H           7.0628    1.5790    0.0000 H       1  UNL1        0.0572
     53 H           5.9145   -0.0526    0.0000 H       1  UNL1        0.0235
     54 H           5.2993    0.5721    0.0000 H       1  UNL1        0.0235
     55 H           4.6745   -0.0431    0.0000 H       1  UNL1        0.0235
     56 H           3.2075   -0.4264    0.0000 H       1  UNL1        0.0290
     57 H           2.8004   -1.1131    0.0000 H       1  UNL1        0.0290
     58 H           7.6884   -1.6927    0.0000 H       1  UNL1        0.0238
     59 H           8.4830   -2.0632    0.0000 H       1  UNL1        0.0238
     60 H           8.8535   -1.2685    0.0000 H       1  UNL1        0.0238
     61 H           8.5752    2.6571    0.0000 H       1  UNL1        0.0276
     62 H           8.1894    1.9582    0.0000 H       1  UNL1        0.0276
     63 H          10.8817    0.4314    0.0000 H       1  UNL1        0.0275
     64 H          11.2835    1.1212    0.0000 H       1  UNL1        0.0275
     65 H           3.3085   -3.1992    0.0000 H       1  UNL1        0.0236
     66 H           3.5387   -4.0452    0.0000 H       1  UNL1        0.0236
     67 H           4.3848   -3.8150    0.0000 H       1  UNL1        0.0236
     68 H           4.3109   -3.8153    0.0000 H       1  UNL1        0.0236
     69 H           5.1587   -4.0390    0.0000 H       1  UNL1        0.0236
     70 H           5.3824   -3.1912    0.0000 H       1  UNL1        0.0236
     71 H          11.2835    1.9940    0.0000 H       1  UNL1        0.0271
     72 H          10.8817    2.6838    0.0000 H       1  UNL1        0.0271
     73 H          10.6035   -0.6334    0.0000 H       1  UNL1        0.1032
     74 H          10.7593    3.2033    0.0000 H       1  UNL1        0.0235
     75 H          10.5226    4.0476    0.0000 H       1  UNL1        0.0235
     76 H           9.6783    3.8108    0.0000 H       1  UNL1        0.0235
     77 H           9.7522    3.8117    0.0000 H       1  UNL1        0.0235
     78 H           8.9027    4.0288    0.0000 H       1  UNL1        0.0235
     79 H           8.6855    3.1793    0.0000 H       1  UNL1        0.0235
     80 H           2.0000   -2.2812    0.0000 H       1  UNL1        0.2098
@<TRIPOS>BOND
     1    19     1    1
     2     1    80    1
     3     2    30    2
     4     3     4    1
     5     3     6    1
     6     3     8    1
     7     3    17    1
     8     4     5    1
     9     4    13    1
    10     4    33    1
    11     5     7    1
    12     5    14    1
    13     5    21    1
    14     6    10    1
    15     6    15    1
    16     6    23    1
    17     7     9    1
    18     7    11    1
    19     7    34    1
    20     8     9    1
    21     8    35    1
    22     8    36    1
    23     9    37    1
    24     9    38    1
    25    10    12    1
    26    10    20    2
    27    11    19    1
    28    11    27    1
    29    11    28    1
    30    12    16    1
    31    12    24    1
    32    12    39    1
    33    13    20    1
    34    13    40    1
    35    13    41    1
    36    14    22    1
    37    14    42    1
    38    14    43    1
    39    15    18    1
    40    15    44    1
    41    15    45    1
    42    16    18    1
    43    16    25    1
    44    16    30    1
    45    17    46    1
    46    17    47    1
    47    17    48    1
    48    18    49    1
    49    18    50    1
    50    19    22    1
    51    19    51    1
    52    20    52    1
    53    21    53    1
    54    21    54    1
    55    21    55    1
    56    22    56    1
    57    22    57    1
    58    23    58    1
    59    23    59    1
    60    23    60    1
    61    24    26    1
    62    24    61    1
    63    24    62    1
    64    25    29    1
    65    25    63    1
    66    25    64    1
    67    26    29    1
    68    26    31    1
    69    26    32    1
    70    27    65    1
    71    27    66    1
    72    27    67    1
    73    28    68    1
    74    28    69    1
    75    28    70    1
    76    29    71    1
    77    29    72    1
    78    30    73    1
    79    31    74    1
    80    31    75    1
    81    31    76    1
    82    32    77    1
    83    32    78    1
    84    32    79    1
