@<TRIPOS>MOLECULE
IMPHY009247
 67 73 0 0 0
SMALL
GASTEIGER

@<TRIPOS>ATOM
      1 N           6.9654    3.4144    0.0000 N.3     1  UNL1       -0.2934
      2 N           4.5124    2.2970    0.0000 N.ar    1  UNL1       -0.3564
      3 N           6.2345   -0.0249    0.0000 N.3     1  UNL1       -0.3078
      4 N           8.4842   -1.6342    0.0000 N.ar    1  UNL1       -0.3565
      5 C           7.6200    1.4514    0.0000 C.3     1  UNL1       -0.0335
      6 C           8.3170    2.2255    0.0000 C.3     1  UNL1       -0.0255
      7 C           6.2962    2.6713    0.0000 C.3     1  UNL1        0.0512
      8 C           6.6028    1.6758    0.0000 C.3     1  UNL1       -0.0286
      9 C           7.9875    3.2136    0.0000 C.3     1  UNL1        0.0026
     10 C           7.9253    0.4991    0.0000 C.3     1  UNL1       -0.0288
     11 C           5.3181    2.8792    0.0000 C.ar    1  UNL1        0.0376
     12 C           6.6564    4.3655    0.0000 C.3     1  UNL1        0.0036
     13 C           7.2533   -0.2414    0.0000 C.3     1  UNL1        0.0486
     14 C           9.2959    2.0213    0.0000 C.3     1  UNL1       -0.0516
     15 C           5.0091    3.8302    0.0000 C.ar    1  UNL1       -0.0164
     16 C           5.6782    4.5734    0.0000 C.3     1  UNL1       -0.0125
     17 C           7.5676   -1.2345    0.0000 C.ar    1  UNL1        0.0374
     18 C           4.0150    3.8277    0.0000 C.ar    1  UNL1        0.0032
     19 C           9.9622    2.7670    0.0000 C.3     1  UNL1       -0.0650
     20 C           3.7086    2.8820    0.0000 C.ar    1  UNL1        0.0470
     21 C           6.9042   -1.9828    0.0000 C.ar    1  UNL1       -0.0164
     22 C           5.5435   -0.8043    0.0000 C.3     1  UNL1        0.0005
     23 C           5.8806   -1.7899    0.0000 C.3     1  UNL1       -0.0128
     24 C           7.4108   -2.8450    0.0000 C.ar    1  UNL1        0.0032
     25 C           8.3874   -2.6295    0.0000 C.ar    1  UNL1        0.0470
     26 C           3.3334    4.6072    0.0000 C.ar    1  UNL1       -0.0523
     27 C           2.6994    2.6502    0.0000 C.ar    1  UNL1       -0.0378
     28 C           2.3191    4.3988    0.0000 C.ar    1  UNL1       -0.0611
     29 C           7.0813   -3.8331    0.0000 C.ar    1  UNL1       -0.0523
     30 C           2.0000    3.4138    0.0000 C.ar    1  UNL1       -0.0598
     31 C           9.1021   -3.3873    0.0000 C.ar    1  UNL1       -0.0378
     32 C           7.7783   -4.6072    0.0000 C.ar    1  UNL1       -0.0611
     33 C           8.7955   -4.3828    0.0000 C.ar    1  UNL1       -0.0598
     34 H           8.2262    1.3213    0.0000 H       1  UNL1        0.0305
     35 H           8.5097    1.6362    0.0000 H       1  UNL1        0.0316
     36 H           5.7226    2.0440    0.0000 H       1  UNL1        0.0527
     37 H           5.9878    1.5974    0.0000 H       1  UNL1        0.0287
     38 H           6.5748    1.0564    0.0000 H       1  UNL1        0.0287
     39 H           8.6005    3.3062    0.0000 H       1  UNL1        0.0429
     40 H           8.0011    3.8334    0.0000 H       1  UNL1        0.0429
     41 H           8.3052    0.0091    0.0000 H       1  UNL1        0.0287
     42 H           8.4739    0.7881    0.0000 H       1  UNL1        0.0287
     43 H           7.2703    4.4518    0.0000 H       1  UNL1        0.0430
     44 H           6.6780    4.9851    0.0000 H       1  UNL1        0.0430
     45 H           7.0629    0.3486    0.0000 H       1  UNL1        0.0525
     46 H           9.0659    1.4456    0.0000 H       1  UNL1        0.0266
     47 H           9.8230    1.6948    0.0000 H       1  UNL1        0.0266
     48 H           5.9105    5.1482    0.0000 H       1  UNL1        0.0326
     49 H           5.1524    4.9020    0.0000 H       1  UNL1        0.0326
     50 H           4.5113    1.6770    0.0000 H       1  UNL1        0.1656
     51 H           6.0406    0.5641    0.0000 H       1  UNL1        0.1226
     52 H          10.4245    2.3540    0.0000 H       1  UNL1        0.0230
     53 H          10.3752    3.2294    0.0000 H       1  UNL1        0.0230
     54 H           9.4998    3.1801    0.0000 H       1  UNL1        0.0230
     55 H           5.1568   -0.3197    0.0000 H       1  UNL1        0.0427
     56 H           4.9998   -1.1024    0.0000 H       1  UNL1        0.0427
     57 H           5.2683   -1.8872    0.0000 H       1  UNL1        0.0326
     58 H           5.8717   -2.4098    0.0000 H       1  UNL1        0.0326
     59 H           9.0188   -1.3201    0.0000 H       1  UNL1        0.1656
     60 H           3.5313    5.1948    0.0000 H       1  UNL1        0.0624
     61 H           2.5152    2.0582    0.0000 H       1  UNL1        0.0638
     62 H           1.9056    4.8608    0.0000 H       1  UNL1        0.0618
     63 H           6.4744   -3.9597    0.0000 H       1  UNL1        0.0624
     64 H           1.3942    3.2820    0.0000 H       1  UNL1        0.0618
     65 H           9.7059   -3.2467    0.0000 H       1  UNL1        0.0638
     66 H           7.5890   -5.1976    0.0000 H       1  UNL1        0.0618
     67 H           9.2157   -4.8387    0.0000 H       1  UNL1        0.0618
@<TRIPOS>BOND
     1     1     7    1
     2     1     9    1
     3     1    12    1
     4     2    11   ar
     5     2    20   ar
     6     2    50    1
     7     3    13    1
     8     3    22    1
     9     3    51    1
    10     4    17   ar
    11     4    25   ar
    12     4    59    1
    13     5     6    1
    14     5     8    1
    15     5    10    1
    16     5    34    1
    17     6     9    1
    18     6    14    1
    19     6    35    1
    20     7     8    1
    21     7    11    1
    22     7    36    1
    23     8    37    1
    24     8    38    1
    25     9    39    1
    26     9    40    1
    27    13    10    1
    28    10    41    1
    29    10    42    1
    30    11    15   ar
    31    12    16    1
    32    12    43    1
    33    12    44    1
    34    13    17    1
    35    13    45    1
    36    14    19    1
    37    14    46    1
    38    14    47    1
    39    15    16    1
    40    15    18   ar
    41    16    48    1
    42    16    49    1
    43    17    21   ar
    44    18    20   ar
    45    18    26   ar
    46    19    52    1
    47    19    53    1
    48    19    54    1
    49    20    27   ar
    50    21    23    1
    51    21    24   ar
    52    22    23    1
    53    22    55    1
    54    22    56    1
    55    23    57    1
    56    23    58    1
    57    24    25   ar
    58    24    29   ar
    59    25    31   ar
    60    26    28   ar
    61    26    60    1
    62    27    30   ar
    63    27    61    1
    64    28    30   ar
    65    28    62    1
    66    29    32   ar
    67    29    63    1
    68    30    64    1
    69    31    33   ar
    70    31    65    1
    71    32    33   ar
    72    32    66    1
    73    33    67    1
