@<TRIPOS>MOLECULE
IMPHY000347
 22 24 0 0 0
SMALL
GASTEIGER

@<TRIPOS>ATOM
      1 O           2.0069    1.7846    0.0000 O.2     1  UNL1       -0.2873
      2 C           3.7389   -0.2154    0.0000 C.ar    1  UNL1        0.0001
      3 C           2.8729    0.2846    0.0000 C.ar    1  UNL1        0.0299
      4 C           3.7229   -1.2569    0.0000 C.ar    1  UNL1       -0.0166
      5 C           4.6050    0.2846    0.0000 C.ar    1  UNL1       -0.0165
      6 C           2.0134   -0.2101    0.0000 C.ar    1  UNL1       -0.0503
      7 C           2.8457   -1.7196    0.0000 C.ar    1  UNL1       -0.0540
      8 C           2.8729    1.2846    0.0000 C.2     1  UNL1        0.1867
      9 C           4.6209   -1.7846    0.0000 C.ar    1  UNL1       -0.0540
     10 C           4.6050    1.2846    0.0000 C.2     1  UNL1       -0.0504
     11 C           5.5150   -0.2222    0.0000 C.ar    1  UNL1       -0.0540
     12 C           2.0000   -1.2018    0.0000 C.ar    1  UNL1       -0.0605
     13 C           3.7389    1.7846    0.0000 C.2     1  UNL1       -0.0138
     14 C           5.5230   -1.2638    0.0000 C.ar    1  UNL1       -0.0606
     15 H           1.4788    0.1038    0.0000 H       1  UNL1        0.0625
     16 H           2.8259   -2.3393    0.0000 H       1  UNL1        0.0624
     17 H           4.6185   -2.4046    0.0000 H       1  UNL1        0.0624
     18 H           5.1419    1.5946    0.0000 H       1  UNL1        0.0625
     19 H           6.0483    0.0940    0.0000 H       1  UNL1        0.0624
     20 H           1.4571   -1.5011    0.0000 H       1  UNL1        0.0618
     21 H           3.7389    2.4046    0.0000 H       1  UNL1        0.0656
     22 H           6.0611   -1.5717    0.0000 H       1  UNL1        0.0618
@<TRIPOS>BOND
     1     1     8    2
     2     2     3   ar
     3     2     4   ar
     4     2     5   ar
     5     3     6   ar
     6     3     8    1
     7     4     7   ar
     8     4     9   ar
     9     5    10    1
    10     5    11   ar
    11     6    12   ar
    12     6    15    1
    13     7    12   ar
    14     7    16    1
    15     8    13    1
    16     9    14   ar
    17     9    17    1
    18    10    13    2
    19    10    18    1
    20    11    14   ar
    21    11    19    1
    22    12    20    1
    23    13    21    1
    24    14    22    1
