@<TRIPOS>MOLECULE
IMPHY003290
 63 66 0 0 0
SMALL
GASTEIGER

@<TRIPOS>ATOM
      1 O           3.7320    3.6288    0.0000 O.3     1  UNL1       -0.4610
      2 O           8.0727    0.0843    0.0000 O.3     1  UNL1       -0.4912
      3 O           2.8660    2.1288    0.0000 O.2     1  UNL1       -0.2512
      4 O           9.8138   -2.9429    0.0000 O.2     1  UNL1       -0.4220
      5 O          10.6720   -4.4912    0.0000 O.2     1  UNL1       -0.2452
      6 C           6.3301    2.1288    0.0000 C.3     1  UNL1       -0.0189
      7 C           6.3301    3.1288    0.0000 C.3     1  UNL1       -0.0262
      8 C           5.4641    3.6288    0.0000 C.3     1  UNL1        0.0055
      9 C           7.2241    1.5942    0.0000 C.3     1  UNL1        0.0197
     10 C           5.4641    1.6288    0.0000 C.3     1  UNL1       -0.0433
     11 C           4.5981    3.1288    0.0000 C.3     1  UNL1        0.1084
     12 C           7.2241    3.6635    0.0000 C.3     1  UNL1       -0.0454
     13 C           4.5981    2.1288    0.0000 C.3     1  UNL1       -0.0146
     14 C           6.3301    1.1288    0.0000 C.3     1  UNL1       -0.0586
     15 C           8.1301    3.1497    0.0000 C.3     1  UNL1       -0.0313
     16 C           8.1301    2.1080    0.0000 C.2     1  UNL1       -0.0698
     17 C           4.9641    4.4949    0.0000 C.3     1  UNL1       -0.0562
     18 C           5.9641    4.4949    0.0000 C.3     1  UNL1       -0.0562
     19 C           7.2125    0.5943    0.0000 C.3     1  UNL1        0.0965
     20 C           8.9942    1.6047    0.0000 C.2     1  UNL1       -0.0991
     21 C           2.8660    3.1288    0.0000 C.2     1  UNL1        0.3042
     22 C           8.0611   -0.9157    0.0000 C.ar    1  UNL1        0.1241
     23 C           2.0000    3.6288    0.0000 C.3     1  UNL1        0.0332
     24 C           8.9213   -1.4256    0.0000 C.ar    1  UNL1        0.0231
     25 C           7.1894   -1.4056    0.0000 C.ar    1  UNL1       -0.0192
     26 C           8.9098   -2.4256    0.0000 C.ar    1  UNL1        0.1425
     27 C           7.1778   -2.4055    0.0000 C.ar    1  UNL1       -0.0476
     28 C           8.0380   -2.9155    0.0000 C.ar    1  UNL1        0.0178
     29 C           8.0099   -3.9568    0.0000 C.ar    1  UNL1       -0.0443
     30 C           9.8098   -3.9845    0.0000 C.ar    1  UNL1        0.3372
     31 C           8.9018   -4.4949    0.0000 C.ar    1  UNL1        0.0236
     32 H           6.3236    3.9788    0.0000 H       1  UNL1        0.0313
     33 H           7.7580    1.2790    0.0000 H       1  UNL1        0.0384
     34 H           5.0656    1.1539    0.0000 H       1  UNL1        0.0272
     35 H           5.8626    1.1539    0.0000 H       1  UNL1        0.0272
     36 H           4.5981    3.7488    0.0000 H       1  UNL1        0.0739
     37 H           7.6177    4.1425    0.0000 H       1  UNL1        0.0271
     38 H           6.8195    4.1333    0.0000 H       1  UNL1        0.0271
     39 H           3.9875    2.2365    0.0000 H       1  UNL1        0.0301
     40 H           4.3860    1.5462    0.0000 H       1  UNL1        0.0301
     41 H           5.7101    1.1288    0.0000 H       1  UNL1        0.0235
     42 H           6.3301    0.5089    0.0000 H       1  UNL1        0.0235
     43 H           6.9501    1.1288    0.0000 H       1  UNL1        0.0235
     44 H           8.7410    3.0436    0.0000 H       1  UNL1        0.0310
     45 H           8.3392    3.7334    0.0000 H       1  UNL1        0.0310
     46 H           5.5010    4.8049    0.0000 H       1  UNL1        0.0236
     47 H           4.6541    5.0318    0.0000 H       1  UNL1        0.0236
     48 H           4.4272    4.1849    0.0000 H       1  UNL1        0.0236
     49 H           6.5010    4.1849    0.0000 H       1  UNL1        0.0236
     50 H           6.2741    5.0318    0.0000 H       1  UNL1        0.0236
     51 H           5.4272    4.8049    0.0000 H       1  UNL1        0.0236
     52 H           6.6032    0.7090    0.0000 H       1  UNL1        0.0703
     53 H           6.9937    0.0141    0.0000 H       1  UNL1        0.0703
     54 H           8.9918    0.9847    0.0000 H       1  UNL1        0.0535
     55 H           9.5323    1.9126    0.0000 H       1  UNL1        0.0535
     56 H           2.3100    4.1658    0.0000 H       1  UNL1        0.0342
     57 H           1.4631    3.9388    0.0000 H       1  UNL1        0.0342
     58 H           1.6900    3.0919    0.0000 H       1  UNL1        0.0342
     59 H           9.4618   -1.1219    0.0000 H       1  UNL1        0.0691
     60 H           6.6561   -1.0894    0.0000 H       1  UNL1        0.0654
     61 H           6.6373   -2.7093    0.0000 H       1  UNL1        0.0626
     62 H           7.4659   -4.2543    0.0000 H       1  UNL1        0.0627
     63 H           8.8922   -5.1148    0.0000 H       1  UNL1        0.0689
@<TRIPOS>BOND
     1    11     1    1
     2     1    21    1
     3     2    19    1
     4     2    22    1
     5     3    21    2
     6     4    26   ar
     7     4    30   ar
     8     5    30    2
     9     6     7    1
    10     6     9    1
    11     6    10    1
    12     6    14    1
    13     7     8    1
    14     7    12    1
    15     7    32    1
    16     8    11    1
    17     8    17    1
    18     8    18    1
    19     9    16    1
    20     9    19    1
    21     9    33    1
    22    10    13    1
    23    10    34    1
    24    10    35    1
    25    11    13    1
    26    11    36    1
    27    12    15    1
    28    12    37    1
    29    12    38    1
    30    13    39    1
    31    13    40    1
    32    14    41    1
    33    14    42    1
    34    14    43    1
    35    15    16    1
    36    15    44    1
    37    15    45    1
    38    16    20    2
    39    17    46    1
    40    17    47    1
    41    17    48    1
    42    18    49    1
    43    18    50    1
    44    18    51    1
    45    19    52    1
    46    19    53    1
    47    20    54    1
    48    20    55    1
    49    21    23    1
    50    22    24   ar
    51    22    25   ar
    52    23    56    1
    53    23    57    1
    54    23    58    1
    55    24    26   ar
    56    24    59    1
    57    25    27   ar
    58    25    60    1
    59    26    28   ar
    60    27    28   ar
    61    27    61    1
    62    28    29   ar
    63    29    31   ar
    64    29    62    1
    65    30    31   ar
    66    31    63    1
