@<TRIPOS>MOLECULE
IMPHY012511
 92 97 0 0 0
SMALL
GASTEIGER

@<TRIPOS>ATOM
      1 O           3.4224    0.2739    0.0000 O.3     1  UNL1       -0.3594
      2 O           6.9054    1.4570    0.0000 O.3     1  UNL1       -0.4551
      3 O           7.1352   -0.5783    0.0000 O.3     1  UNL1       -0.4592
      4 O           3.5328   -0.4363    0.0000 O.3     1  UNL1       -0.4604
      5 O           3.6125   -3.4921    0.0000 O.3     1  UNL1       -0.4545
      6 O           5.9240    4.5678    0.0000 O.2     1  UNL1       -0.4708
      7 O           6.0356   -4.5678    0.0000 O.3     1  UNL1       -0.4606
      8 O           7.9396    0.0676    0.0000 O.2     1  UNL1       -0.2479
      9 O           2.0000   -2.9746    0.0000 O.2     1  UNL1       -0.2507
     10 O           7.6565   -3.8562    0.0000 O.2     1  UNL1       -0.2508
     11 O           8.1587   -1.9757    0.0000 O.2     1  UNL1       -0.2546
     12 O           8.5097    2.6512    0.0000 O.3     1  UNL1       -0.3803
     13 O           2.0107    0.3903    0.0000 O.2     1  UNL1       -0.2512
     14 C           4.3362    0.6811    0.0000 C.3     1  UNL1        0.1264
     15 C           5.1452    1.2689    0.0000 C.3     1  UNL1        0.0507
     16 C           3.5272    1.2689    0.0000 C.3     1  UNL1        0.0939
     17 C           4.8362    2.2199    0.0000 C.3     1  UNL1        0.0015
     18 C           3.8362    2.2199    0.0000 C.3     1  UNL1       -0.0158
     19 C           6.1032    0.8599    0.0000 C.3     1  UNL1        0.1493
     20 C           4.4291   -0.3564    0.0000 C.2     1  UNL1       -0.0348
     21 C           5.3774   -0.7874    0.0000 C.3     1  UNL1        0.0324
     22 C           6.2201   -0.1751    0.0000 C.3     1  UNL1        0.1472
     23 C           4.9671   -1.6994    0.0000 C.3     1  UNL1        0.0226
     24 C           5.9542    1.8567    0.0000 C.3     1  UNL1       -0.0524
     25 C           5.4240    3.0290    0.0000 C.ar    1  UNL1       -0.0058
     26 C           5.2150   -2.6681    0.0000 C.3     1  UNL1        0.0214
     27 C           4.0552   -1.2891    0.0000 C.3     1  UNL1        0.1195
     28 C           3.4910   -1.0215    0.0000 C.2     1  UNL1       -0.0962
     29 C           5.9359   -1.4515    0.0000 C.3     1  UNL1       -0.0551
     30 C           4.6121   -3.4660    0.0000 C.3     1  UNL1        0.1483
     31 C           6.2505   -2.7805    0.0000 C.3     1  UNL1        0.0521
     32 C           3.1658   -1.7463    0.0000 C.3     1  UNL1        0.0825
     33 C           6.4240    3.0290    0.0000 C.ar    1  UNL1       -0.0205
     34 C           5.1150    3.9800    0.0000 C.ar    1  UNL1        0.0951
     35 C           5.0029   -4.4315    0.0000 C.3     1  UNL1        0.1321
     36 C           7.8236    1.0609    0.0000 C.2     1  UNL1        0.3367
     37 C           4.0092   -4.2638    0.0000 C.3     1  UNL1       -0.0213
     38 C           2.9688   -2.7268    0.0000 C.2     1  UNL1        0.3113
     39 C           6.6636   -3.7368    0.0000 C.2     1  UNL1        0.3076
     40 C           6.7330    3.9800    0.0000 C.ar    1  UNL1        0.0919
     41 C           7.2436   -1.5724    0.0000 C.2     1  UNL1        0.2946
     42 C           8.6257    1.6580    0.0000 C.3     1  UNL1        0.1541
     43 C           2.5331   -0.4624    0.0000 C.2     1  UNL1        0.3042
     44 C           9.5439    1.2618    0.0000 C.3     1  UNL1       -0.0076
     45 C           2.0558   -1.3411    0.0000 C.3     1  UNL1        0.0332
     46 C          10.3461    1.8589    0.0000 C.3     1  UNL1       -0.0504
     47 C           9.6600    0.2686    0.0000 C.3     1  UNL1       -0.0595
     48 C          11.2643    1.4628    0.0000 C.3     1  UNL1       -0.0649
     49 H           2.9208    1.3979    0.0000 H       1  UNL1        0.0629
     50 H           4.5547    2.7724    0.0000 H       1  UNL1        0.0358
     51 H           3.9010    2.8365    0.0000 H       1  UNL1        0.0297
     52 H           3.2298    2.3488    0.0000 H       1  UNL1        0.0297
     53 H           6.6720    0.6132    0.0000 H       1  UNL1        0.0778
     54 H           4.7973   -1.0062    0.0000 H       1  UNL1        0.0390
     55 H           6.7196    0.1922    0.0000 H       1  UNL1        0.0778
     56 H           6.3187    1.3551    0.0000 H       1  UNL1        0.0237
     57 H           6.4558    2.2211    0.0000 H       1  UNL1        0.0237
     58 H           5.5898    2.3583    0.0000 H       1  UNL1        0.0237
     59 H           5.6211   -2.1997    0.0000 H       1  UNL1        0.0352
     60 H           4.4649   -0.8238    0.0000 H       1  UNL1        0.0745
     61 H           2.9275   -0.7628    0.0000 H       1  UNL1        0.0535
     62 H           3.5487   -1.6388    0.0000 H       1  UNL1        0.0535
     63 H           6.0896   -2.0522    0.0000 H       1  UNL1        0.0237
     64 H           6.5366   -1.2978    0.0000 H       1  UNL1        0.0237
     65 H           5.7823   -0.8508    0.0000 H       1  UNL1        0.0237
     66 H           6.8534   -2.6357    0.0000 H       1  UNL1        0.0382
     67 H           6.2110   -2.1618    0.0000 H       1  UNL1        0.0382
     68 H           3.0121   -1.1457    0.0000 H       1  UNL1        0.0414
     69 H           2.5460   -1.7625    0.0000 H       1  UNL1        0.0414
     70 H           6.7884    2.5274    0.0000 H       1  UNL1        0.0652
     71 H           4.5253    4.1716    0.0000 H       1  UNL1        0.1032
     72 H           4.3969   -4.5624    0.0000 H       1  UNL1        0.0738
     73 H           5.0282   -5.0510    0.0000 H       1  UNL1        0.0738
     74 H           3.5145   -3.8900    0.0000 H       1  UNL1        0.0269
     75 H           3.6354   -4.7584    0.0000 H       1  UNL1        0.0269
     76 H           4.5038   -4.6376    0.0000 H       1  UNL1        0.0269
     77 H           7.3227    4.1716    0.0000 H       1  UNL1        0.1029
     78 H           6.7434   -1.9388    0.0000 H       1  UNL1        0.1512
     79 H           8.0565    1.9036    0.0000 H       1  UNL1        0.0713
     80 H           9.0466    0.8916    0.0000 H       1  UNL1        0.0328
     81 H           9.0071    3.0214    0.0000 H       1  UNL1        0.2105
     82 H           1.5110   -1.0452    0.0000 H       1  UNL1        0.0342
     83 H           1.7599   -1.8859    0.0000 H       1  UNL1        0.0342
     84 H           2.6007   -1.6370    0.0000 H       1  UNL1        0.0342
     85 H          10.6868    2.3769    0.0000 H       1  UNL1        0.0266
     86 H           9.8952    2.2844    0.0000 H       1  UNL1        0.0266
     87 H           9.0441    0.1967    0.0000 H       1  UNL1        0.0233
     88 H           9.7319   -0.3472    0.0000 H       1  UNL1        0.0233
     89 H          10.2758    0.3405    0.0000 H       1  UNL1        0.0233
     90 H          11.0187    0.8935    0.0000 H       1  UNL1        0.0230
     91 H          11.8336    1.2172    0.0000 H       1  UNL1        0.0230
     92 H          11.5099    2.0321    0.0000 H       1  UNL1        0.0230
@<TRIPOS>BOND
     1     1    14    1
     2     1    16    1
     3     2    19    1
     4     2    36    1
     5     3    22    1
     6     3    41    1
     7     4    27    1
     8     4    43    1
     9     5    30    1
    10     5    38    1
    11     6    34   ar
    12     6    40   ar
    13     7    35    1
    14     7    39    1
    15     8    36    2
    16     9    38    2
    17    10    39    2
    18    11    41    2
    19    12    42    1
    20    12    81    1
    21    13    43    2
    22    14    15    1
    23    14    16    1
    24    14    20    1
    25    15    17    1
    26    15    19    1
    27    15    24    1
    28    16    18    1
    29    16    49    1
    30    17    18    1
    31    17    25    1
    32    17    50    1
    33    18    51    1
    34    18    52    1
    35    19    22    1
    36    19    53    1
    37    20    21    1
    38    20    28    2
    39    21    22    1
    40    21    23    1
    41    21    54    1
    42    22    55    1
    43    23    26    1
    44    23    27    1
    45    23    29    1
    46    24    56    1
    47    24    57    1
    48    24    58    1
    49    25    33   ar
    50    25    34   ar
    51    26    30    1
    52    26    31    1
    53    26    59    1
    54    27    32    1
    55    27    60    1
    56    28    61    1
    57    28    62    1
    58    29    63    1
    59    29    64    1
    60    29    65    1
    61    30    35    1
    62    30    37    1
    63    31    39    1
    64    31    66    1
    65    31    67    1
    66    32    38    1
    67    32    68    1
    68    32    69    1
    69    33    40   ar
    70    33    70    1
    71    34    71    1
    72    35    72    1
    73    35    73    1
    74    36    42    1
    75    37    74    1
    76    37    75    1
    77    37    76    1
    78    40    77    1
    79    41    78    1
    80    42    44    1
    81    42    79    1
    82    43    45    1
    83    44    46    1
    84    44    47    1
    85    44    80    1
    86    45    82    1
    87    45    83    1
    88    45    84    1
    89    46    48    1
    90    46    85    1
    91    46    86    1
    92    47    87    1
    93    47    88    1
    94    47    89    1
    95    48    90    1
    96    48    91    1
    97    48    92    1
