@<TRIPOS>MOLECULE
IMPHY002172
 82 85 0 0 0
SMALL
GASTEIGER

@<TRIPOS>ATOM
      1 O           7.9506   -3.2049    0.0000 O.3     1  UNL1       -0.3874
      2 O           5.8960    0.5323    0.0000 O.2     1  UNL1       -0.3004
      3 O           2.5357   -3.2258    0.0000 O.3     1  UNL1       -0.3909
      4 O           9.8070    2.9828    0.0000 O.3     1  UNL1       -0.3878
      5 C           7.9288   -1.1735    0.0000 C.3     1  UNL1       -0.0200
      6 C           7.9288   -0.1735    0.0000 C.3     1  UNL1       -0.0232
      7 C           7.0628   -1.6735    0.0000 C.3     1  UNL1        0.0071
      8 C           6.1968   -1.1735    0.0000 C.3     1  UNL1        0.0384
      9 C           8.8750    0.1313    0.0000 C.3     1  UNL1       -0.0324
     10 C           8.8750   -1.4782    0.0000 C.3     1  UNL1       -0.0465
     11 C           7.0628    0.3265    0.0000 C.3     1  UNL1       -0.0459
     12 C           6.1968   -0.1735    0.0000 C.3     1  UNL1       -0.0395
     13 C           9.4586   -0.6735    0.0000 C.3     1  UNL1       -0.0489
     14 C           5.2868   -1.6803    0.0000 C.3     1  UNL1       -0.0067
     15 C           7.0789   -2.7150    0.0000 C.3     1  UNL1        0.0779
     16 C           7.9288   -2.1735    0.0000 C.3     1  UNL1       -0.0587
     17 C           7.9288    0.8265    0.0000 C.3     1  UNL1       -0.0588
     18 C           9.1857    1.0818    0.0000 C.3     1  UNL1       -0.0379
     19 C           5.2787   -2.7219    0.0000 C.2     1  UNL1       -0.0590
     20 C           4.3599   -1.1162    0.0000 C.3     1  UNL1       -0.0432
     21 C           6.1808   -3.2427    0.0000 C.2     1  UNL1       -0.0555
     22 C           5.5540   -0.4074    0.0000 C.2     1  UNL1        0.1274
     23 C           4.3433   -3.2716    0.0000 C.3     1  UNL1        0.0124
     24 C           3.4120   -1.6442    0.0000 C.3     1  UNL1       -0.0255
     25 C           3.4037   -2.7291    0.0000 C.3     1  UNL1        0.0640
     26 C          10.1642    1.2880    0.0000 C.3     1  UNL1       -0.0204
     27 C           8.5179    1.8261    0.0000 C.3     1  UNL1       -0.0621
     28 C           3.8467   -4.1396    0.0000 C.3     1  UNL1       -0.0537
     29 C           4.8466   -4.1357    0.0000 C.3     1  UNL1       -0.0537
     30 C          10.4749    2.2385    0.0000 C.3     1  UNL1        0.0738
     31 C          11.4534    2.4448    0.0000 C.2     1  UNL1       -0.0572
     32 C          11.7640    3.3953    0.0000 C.2     1  UNL1       -0.0772
     33 C          12.7425    3.6015    0.0000 C.3     1  UNL1       -0.0440
     34 C          11.0962    4.1396    0.0000 C.3     1  UNL1       -0.0440
     35 H           7.8022   -2.0928    0.0000 H       1  UNL1        0.0344
     36 H           9.7148    0.2632    0.0000 H       1  UNL1        0.0309
     37 H           8.6240   -2.0451    0.0000 H       1  UNL1        0.0271
     38 H           9.4124   -1.7874    0.0000 H       1  UNL1        0.0271
     39 H           7.4613    0.8015    0.0000 H       1  UNL1        0.0271
     40 H           6.6643    0.8015    0.0000 H       1  UNL1        0.0271
     41 H           5.9847    0.4092    0.0000 H       1  UNL1        0.0275
     42 H           5.5862   -0.2811    0.0000 H       1  UNL1        0.0275
     43 H           9.9195   -1.0882    0.0000 H       1  UNL1        0.0268
     44 H           9.9195   -0.2587    0.0000 H       1  UNL1        0.0268
     45 H           5.3031   -0.8305    0.0000 H       1  UNL1        0.0355
     46 H           7.6116   -2.3978    0.0000 H       1  UNL1        0.0641
     47 H           7.3088   -2.1735    0.0000 H       1  UNL1        0.0235
     48 H           7.9288   -2.7935    0.0000 H       1  UNL1        0.0235
     49 H           8.5488   -2.1735    0.0000 H       1  UNL1        0.0235
     50 H           8.5488    0.8265    0.0000 H       1  UNL1        0.0235
     51 H           7.9288    1.4465    0.0000 H       1  UNL1        0.0235
     52 H           7.3088    0.8265    0.0000 H       1  UNL1        0.0235
     53 H           9.3783    1.6711    0.0000 H       1  UNL1        0.0302
     54 H           4.7681   -0.6496    0.0000 H       1  UNL1        0.0272
     55 H           3.9700   -0.6342    0.0000 H       1  UNL1        0.0272
     56 H           6.1832   -3.8627    0.0000 H       1  UNL1        0.0597
     57 H           4.9434   -0.5151    0.0000 H       1  UNL1        0.1032
     58 H           3.2075   -1.0589    0.0000 H       1  UNL1        0.0290
     59 H           2.8004   -1.7456    0.0000 H       1  UNL1        0.0290
     60 H           3.4025   -3.3491    0.0000 H       1  UNL1        0.0602
     61 H          10.1848    0.6684    0.0000 H       1  UNL1        0.0296
     62 H          10.7780    1.2007    0.0000 H       1  UNL1        0.0296
     63 H           8.9793    2.2402    0.0000 H       1  UNL1        0.0233
     64 H           8.1038    2.2876    0.0000 H       1  UNL1        0.0233
     65 H           8.0564    1.4120    0.0000 H       1  UNL1        0.0233
     66 H           7.9578   -3.8249    0.0000 H       1  UNL1        0.2102
     67 H           3.3085   -3.8316    0.0000 H       1  UNL1        0.0239
     68 H           3.5387   -4.6777    0.0000 H       1  UNL1        0.0239
     69 H           4.3848   -4.4475    0.0000 H       1  UNL1        0.0239
     70 H           4.3109   -4.4478    0.0000 H       1  UNL1        0.0239
     71 H           5.1587   -4.6715    0.0000 H       1  UNL1        0.0239
     72 H           5.3824   -3.8236    0.0000 H       1  UNL1        0.0239
     73 H          10.6675    2.8279    0.0000 H       1  UNL1        0.0638
     74 H           2.0000   -2.9137    0.0000 H       1  UNL1        0.2098
     75 H          11.8674    1.9833    0.0000 H       1  UNL1        0.0597
     76 H           9.9996    3.5722    0.0000 H       1  UNL1        0.2102
     77 H          12.8704    2.9948    0.0000 H       1  UNL1        0.0274
     78 H          13.3492    3.7294    0.0000 H       1  UNL1        0.0274
     79 H          12.6147    4.2082    0.0000 H       1  UNL1        0.0274
     80 H          11.5577    4.5536    0.0000 H       1  UNL1        0.0274
     81 H          10.6821    4.6010    0.0000 H       1  UNL1        0.0274
     82 H          10.6347    3.7255    0.0000 H       1  UNL1        0.0274
@<TRIPOS>BOND
     1    15     1    1
     2     1    66    1
     3     2    22    2
     4    25     3    1
     5     3    74    1
     6     4    30    1
     7     4    76    1
     8     5     6    1
     9     5     7    1
    10     5    10    1
    11     5    16    1
    12     6     9    1
    13     6    11    1
    14     6    17    1
    15     7     8    1
    16     7    15    1
    17     7    35    1
    18     8    12    1
    19     8    14    1
    20     8    22    1
    21     9    13    1
    22     9    18    1
    23     9    36    1
    24    10    13    1
    25    10    37    1
    26    10    38    1
    27    11    12    1
    28    11    39    1
    29    11    40    1
    30    12    41    1
    31    12    42    1
    32    13    43    1
    33    13    44    1
    34    14    19    1
    35    14    20    1
    36    14    45    1
    37    15    21    1
    38    15    46    1
    39    16    47    1
    40    16    48    1
    41    16    49    1
    42    17    50    1
    43    17    51    1
    44    17    52    1
    45    18    26    1
    46    18    27    1
    47    18    53    1
    48    19    21    2
    49    19    23    1
    50    20    24    1
    51    20    54    1
    52    20    55    1
    53    21    56    1
    54    22    57    1
    55    23    25    1
    56    23    28    1
    57    23    29    1
    58    24    25    1
    59    24    58    1
    60    24    59    1
    61    25    60    1
    62    26    30    1
    63    26    61    1
    64    26    62    1
    65    27    63    1
    66    27    64    1
    67    27    65    1
    68    28    67    1
    69    28    68    1
    70    28    69    1
    71    29    70    1
    72    29    71    1
    73    29    72    1
    74    30    31    1
    75    30    73    1
    76    31    32    2
    77    31    75    1
    78    32    33    1
    79    32    34    1
    80    33    77    1
    81    33    78    1
    82    33    79    1
    83    34    80    1
    84    34    81    1
    85    34    82    1
