@<TRIPOS>MOLECULE
IMPHY004068
 23 22 0 0 0
SMALL
GASTEIGER

@<TRIPOS>ATOM
      1 CL          6.8671    2.8100    0.0000 Cl      1  UNL1       -0.1454
      2 O           0.0000    4.1200    0.0000 O.co2   2  UNL2       -0.8686
      3 N           4.3301    0.6200    0.0000 N.3     2  UNL2       -0.3297
      4 N           1.7320    5.1200    0.0000 N.1     2  UNL2        0.1707
      5 N           1.7320    6.1200    0.0000 N.1     2  UNL2        0.2218
      6 C           3.4641    2.1200    0.0000 C.3     2  UNL2       -0.0151
      7 C           2.5981    2.6200    0.0000 C.ar    2  UNL2       -0.0387
      8 C           3.4641    1.1200    0.0000 C.3     2  UNL2       -0.0029
      9 C           2.5981    3.6200    0.0000 C.ar    2  UNL2        0.0352
     10 C           1.7320    2.1200    0.0000 C.ar    2  UNL2       -0.0586
     11 C           1.7320    4.1200    0.0000 C.ar    2  UNL2        0.3788
     12 C           0.8660    2.6200    0.0000 C.ar    2  UNL2       -0.0617
     13 C           0.8660    3.6200    0.0000 C.ar    2  UNL2       -0.0112
     14 H           4.0747    2.0123    0.0000 H       2  UNL2        0.0325
     15 H           3.6762    2.7026    0.0000 H       2  UNL2        0.0325
     16 H           2.8535    1.2277    0.0000 H       2  UNL2        0.0425
     17 H           3.2520    0.5374    0.0000 H       2  UNL2        0.0425
     18 H           3.1350    3.9300    0.0000 H       2  UNL2        0.0699
     19 H           1.7320    1.5000    0.0000 H       2  UNL2        0.0620
     20 H           0.3291    2.3100    0.0000 H       2  UNL2        0.0614
     21 H           4.3301    0.0000    0.0000 H       2  UNL2        0.1182
     22 H           4.8671    0.9300    0.0000 H       2  UNL2        0.1182
     23 H           7.8671    2.8100    0.0000 H       1  UNL1        0.1454
@<TRIPOS>UNITY_ATOM_ATTR
2 1
charge -1
4 1
charge 1
@<TRIPOS>BOND
     1     1    23    1
     2     2    13    1
     3     3     8    1
     4     3    21    1
     5     3    22    1
     6     4     5    3
     7     4    11    1
     8     6     7    1
     9     6     8    1
    10     6    14    1
    11     6    15    1
    12     7     9   ar
    13     7    10   ar
    14     8    16    1
    15     8    17    1
    16     9    11   ar
    17     9    18    1
    18    10    12   ar
    19    10    19    1
    20    11    13   ar
    21    12    13   ar
    22    12    20    1
