@<TRIPOS>MOLECULE
IMPHY013261
 39 40 0 0 0
SMALL
GASTEIGER

@<TRIPOS>ATOM
      1 O           2.5369    0.0950    0.0000 O.3     1  UNL1       -0.3886
      2 O           2.5369    2.0950    0.0000 O.3     1  UNL1       -0.3924
      3 O           4.2690   -3.9050    0.0000 O.3     1  UNL1       -0.5068
      4 O           8.5991    3.5950    0.0000 O.3     1  UNL1       -0.5068
      5 C           4.2690    0.0950    0.0000 C.3     1  UNL1        0.0306
      6 C           3.4030    0.5950    0.0000 C.3     1  UNL1        0.0884
      7 C           4.2690   -0.9050    0.0000 C.ar    1  UNL1       -0.0378
      8 C           5.1350    0.5950    0.0000 C.2     1  UNL1       -0.0736
      9 C           3.4030    1.5950    0.0000 C.3     1  UNL1        0.0710
     10 C           5.1350   -1.4050    0.0000 C.ar    1  UNL1       -0.0545
     11 C           3.4030   -1.4050    0.0000 C.ar    1  UNL1       -0.0545
     12 C           5.1350    1.5950    0.0000 C.2     1  UNL1       -0.0579
     13 C           5.1350   -2.4050    0.0000 C.ar    1  UNL1       -0.0199
     14 C           3.4030   -2.4050    0.0000 C.ar    1  UNL1       -0.0199
     15 C           6.0010    2.0950    0.0000 C.ar    1  UNL1       -0.0251
     16 C           4.2690   -2.9050    0.0000 C.ar    1  UNL1        0.1169
     17 C           6.0010    3.0950    0.0000 C.ar    1  UNL1       -0.0512
     18 C           6.8671    1.5950    0.0000 C.ar    1  UNL1       -0.0512
     19 C           6.8671    3.5950    0.0000 C.ar    1  UNL1       -0.0196
     20 C           7.7331    2.0950    0.0000 C.ar    1  UNL1       -0.0196
     21 C           7.7331    3.0950    0.0000 C.ar    1  UNL1        0.1169
     22 H           4.2690    0.7150    0.0000 H       1  UNL1        0.0417
     23 H           3.4030   -0.0250    0.0000 H       1  UNL1        0.0625
     24 H           5.6720    0.2850    0.0000 H       1  UNL1        0.0579
     25 H           4.0135    1.4873    0.0000 H       1  UNL1        0.0583
     26 H           3.6150    2.1776    0.0000 H       1  UNL1        0.0583
     27 H           5.6720   -1.0950    0.0000 H       1  UNL1        0.0622
     28 H           2.8660   -1.0950    0.0000 H       1  UNL1        0.0622
     29 H           4.5981    1.9050    0.0000 H       1  UNL1        0.0621
     30 H           2.0000    0.4050    0.0000 H       1  UNL1        0.2099
     31 H           5.6720   -2.7150    0.0000 H       1  UNL1        0.0654
     32 H           2.8660   -2.7150    0.0000 H       1  UNL1        0.0654
     33 H           2.5369    2.7150    0.0000 H       1  UNL1        0.2095
     34 H           5.4641    3.4050    0.0000 H       1  UNL1        0.0625
     35 H           6.8671    0.9750    0.0000 H       1  UNL1        0.0625
     36 H           6.8671    4.2150    0.0000 H       1  UNL1        0.0654
     37 H           8.2700    1.7850    0.0000 H       1  UNL1        0.0654
     38 H           3.7320   -4.2150    0.0000 H       1  UNL1        0.2921
     39 H           8.5991    4.2150    0.0000 H       1  UNL1        0.2921
@<TRIPOS>BOND
     1     6     1    1
     2     1    30    1
     3     2     9    1
     4     2    33    1
     5     3    16    1
     6     3    38    1
     7     4    21    1
     8     4    39    1
     9     5     6    1
    10     5     7    1
    11     5     8    1
    12     5    22    1
    13     6     9    1
    14     6    23    1
    15     7    10   ar
    16     7    11   ar
    17     8    12    2
    18     8    24    1
    19     9    25    1
    20     9    26    1
    21    10    13   ar
    22    10    27    1
    23    11    14   ar
    24    11    28    1
    25    12    15    1
    26    12    29    1
    27    13    16   ar
    28    13    31    1
    29    14    16   ar
    30    14    32    1
    31    15    17   ar
    32    15    18   ar
    33    17    19   ar
    34    17    34    1
    35    18    20   ar
    36    18    35    1
    37    19    21   ar
    38    19    36    1
    39    20    21   ar
    40    20    37    1
