@<TRIPOS>MOLECULE
IMPHY009131
 40 42 0 0 0
SMALL
GASTEIGER

@<TRIPOS>ATOM
      1 O           6.3981   -0.4254    0.0000 O.2     1  UNL1       -0.4542
      2 O           7.2641   -1.9254    0.0000 O.3     1  UNL1       -0.4943
      3 O           8.9962    1.0746    0.0000 O.3     1  UNL1       -0.4943
      4 O           2.8680    1.5988    0.0000 O.3     1  UNL1       -0.4914
      5 O           4.6497    2.6092    0.0000 O.3     1  UNL1       -0.5027
      6 O           6.3981    2.5746    0.0000 O.2     1  UNL1       -0.2869
      7 C           5.5320    1.0746    0.0000 C.ar    1  UNL1        0.1089
      8 C           7.2641    0.0746    0.0000 C.ar    1  UNL1        0.1463
      9 C           8.1301   -0.4254    0.0000 C.ar    1  UNL1        0.1005
     10 C           5.5320    0.0746    0.0000 C.ar    1  UNL1        0.1430
     11 C           6.3981    1.5746    0.0000 C.ar    1  UNL1        0.1967
     12 C           7.2641    1.0746    0.0000 C.ar    1  UNL1        0.0291
     13 C           4.6381    1.6093    0.0000 C.ar    1  UNL1        0.1730
     14 C           8.1301   -1.4254    0.0000 C.ar    1  UNL1        0.1343
     15 C           8.9962    0.0746    0.0000 C.ar    1  UNL1        0.1343
     16 C           4.6381   -0.4601    0.0000 C.ar    1  UNL1       -0.0149
     17 C           3.7320    1.0954    0.0000 C.ar    1  UNL1        0.1622
     18 C           3.7320    0.0538    0.0000 C.ar    1  UNL1       -0.0128
     19 C           8.9962   -1.9254    0.0000 C.ar    1  UNL1       -0.0190
     20 C           9.8622   -0.4254    0.0000 C.ar    1  UNL1       -0.0190
     21 C           9.8622   -1.4254    0.0000 C.ar    1  UNL1       -0.0548
     22 C           7.2641   -2.9254    0.0000 C.3     1  UNL1        0.0788
     23 C           9.8622    1.5746    0.0000 C.3     1  UNL1        0.0788
     24 C           2.0000    1.1021    0.0000 C.3     1  UNL1        0.0790
     25 H           7.8010    1.3846    0.0000 H       1  UNL1        0.0693
     26 H           4.6453   -1.0800    0.0000 H       1  UNL1        0.0656
     27 H           3.1963   -0.2583    0.0000 H       1  UNL1        0.0656
     28 H           8.9962   -2.5454    0.0000 H       1  UNL1        0.0654
     29 H          10.3991   -0.1154    0.0000 H       1  UNL1        0.0654
     30 H          10.3991   -1.7354    0.0000 H       1  UNL1        0.0620
     31 H           4.1164    2.9254    0.0000 H       1  UNL1        0.2923
     32 H           6.6441   -2.9254    0.0000 H       1  UNL1        0.0660
     33 H           7.2641   -3.5454    0.0000 H       1  UNL1        0.0660
     34 H           7.8841   -2.9254    0.0000 H       1  UNL1        0.0660
     35 H          10.1722    1.0377    0.0000 H       1  UNL1        0.0660
     36 H          10.3991    1.8846    0.0000 H       1  UNL1        0.0660
     37 H           9.5522    2.1115    0.0000 H       1  UNL1        0.0660
     38 H           1.6921    1.6402    0.0000 H       1  UNL1        0.0660
     39 H           1.4619    0.7942    0.0000 H       1  UNL1        0.0660
     40 H           2.3079    0.5640    0.0000 H       1  UNL1        0.0660
@<TRIPOS>BOND
     1     1     8   ar
     2     1    10   ar
     3     2    14    1
     4     2    22    1
     5     3    15    1
     6     3    23    1
     7     4    17    1
     8     4    24    1
     9     5    13    1
    10     5    31    1
    11     6    11    2
    12     7    10   ar
    13     7    11   ar
    14     7    13   ar
    15     8     9    1
    16     8    12   ar
    17     9    14   ar
    18     9    15   ar
    19    10    16   ar
    20    11    12   ar
    21    12    25    1
    22    13    17   ar
    23    14    19   ar
    24    15    20   ar
    25    16    18   ar
    26    16    26    1
    27    17    18   ar
    28    18    27    1
    29    19    21   ar
    30    19    28    1
    31    20    21   ar
    32    20    29    1
    33    21    30    1
    34    22    32    1
    35    22    33    1
    36    22    34    1
    37    23    35    1
    38    23    36    1
    39    23    37    1
    40    24    38    1
    41    24    39    1
    42    24    40    1
