@<TRIPOS>MOLECULE
IMPHY013373
 56 59 0 0 0
SMALL
GASTEIGER

@<TRIPOS>ATOM
      1 O           5.1350   -2.6107    0.0000 O.3     1  UNL1       -0.3313
      2 O           6.8671   -2.6107    0.0000 O.3     1  UNL1       -0.4608
      3 O           5.1350   -5.6107    0.0000 O.3     1  UNL1       -0.3864
      4 O           3.4030   -4.6107    0.0000 O.3     1  UNL1       -0.3865
      5 O           6.8671   -4.6107    0.0000 O.3     1  UNL1       -0.3829
      6 O           2.5369   -3.1107    0.0000 O.3     1  UNL1       -0.3924
      7 O           7.7331    1.8893    0.0000 O.3     1  UNL1       -0.4828
      8 O           5.1350    3.3893    0.0000 O.2     1  UNL1       -0.2917
      9 O           5.9793    4.9208    0.0000 O.3     1  UNL1       -0.4942
     10 O           9.5191    4.9344    0.0000 O.3     1  UNL1       -0.5065
     11 C           5.1350   -4.6107    0.0000 C.3     1  UNL1        0.1152
     12 C           4.2690   -4.1107    0.0000 C.3     1  UNL1        0.1120
     13 C           6.0010   -4.1107    0.0000 C.3     1  UNL1        0.1454
     14 C           4.2690   -3.1107    0.0000 C.3     1  UNL1        0.1140
     15 C           6.0010   -3.1107    0.0000 C.3     1  UNL1        0.2308
     16 C           3.4030   -2.6107    0.0000 C.3     1  UNL1        0.0731
     17 C           6.8671    1.3893    0.0000 C.3     1  UNL1        0.1322
     18 C           6.8671   -1.6107    0.0000 C.ar    1  UNL1        0.1240
     19 C           6.8671    0.3893    0.0000 C.ar    1  UNL1       -0.0067
     20 C           6.0010    1.8893    0.0000 C.3     1  UNL1        0.0520
     21 C           7.7331   -1.1107    0.0000 C.ar    1  UNL1       -0.0195
     22 C           6.0010   -1.1107    0.0000 C.ar    1  UNL1       -0.0195
     23 C           7.7331   -0.1107    0.0000 C.ar    1  UNL1       -0.0516
     24 C           6.0010   -0.1107    0.0000 C.ar    1  UNL1       -0.0516
     25 C           6.0010    2.8893    0.0000 C.2     1  UNL1        0.1740
     26 C           6.8671    3.3893    0.0000 C.ar    1  UNL1        0.1009
     27 C           7.7331    2.8893    0.0000 C.ar    1  UNL1        0.1389
     28 C           6.8510    4.4308    0.0000 C.ar    1  UNL1        0.1375
     29 C           8.6431    3.3962    0.0000 C.ar    1  UNL1        0.0225
     30 C           7.7490    4.9586    0.0000 C.ar    1  UNL1        0.0225
     31 C           8.6511    4.4378    0.0000 C.ar    1  UNL1        0.1238
     32 C           5.9677    5.9207    0.0000 C.3     1  UNL1        0.0788
     33 H           4.5981   -4.9207    0.0000 H       1  UNL1        0.0648
     34 H           4.2690   -4.7307    0.0000 H       1  UNL1        0.0647
     35 H           6.0010   -4.7307    0.0000 H       1  UNL1        0.0683
     36 H           4.2690   -2.4907    0.0000 H       1  UNL1        0.0647
     37 H           6.0010   -2.4907    0.0000 H       1  UNL1        0.1084
     38 H           3.8015   -2.1357    0.0000 H       1  UNL1        0.0584
     39 H           3.0044   -2.1357    0.0000 H       1  UNL1        0.0584
     40 H           5.6720   -5.9207    0.0000 H       1  UNL1        0.2100
     41 H           3.4030   -5.2307    0.0000 H       1  UNL1        0.2100
     42 H           7.4040   -4.3007    0.0000 H       1  UNL1        0.2102
     43 H           7.4040    1.0793    0.0000 H       1  UNL1        0.0789
     44 H           5.3905    1.9970    0.0000 H       1  UNL1        0.0385
     45 H           5.7890    1.3067    0.0000 H       1  UNL1        0.0385
     46 H           2.0000   -2.8007    0.0000 H       1  UNL1        0.2095
     47 H           8.2700   -1.4207    0.0000 H       1  UNL1        0.0654
     48 H           5.4641   -1.4207    0.0000 H       1  UNL1        0.0654
     49 H           8.2700    0.1993    0.0000 H       1  UNL1        0.0623
     50 H           5.4641    0.1993    0.0000 H       1  UNL1        0.0623
     51 H           9.1764    3.0800    0.0000 H       1  UNL1        0.0691
     52 H           7.7466    5.5786    0.0000 H       1  UNL1        0.0691
     53 H           9.5214    5.5544    0.0000 H       1  UNL1        0.2921
     54 H           6.5876    5.9279    0.0000 H       1  UNL1        0.0660
     55 H           5.9605    6.5406    0.0000 H       1  UNL1        0.0660
     56 H           5.3477    5.9135    0.0000 H       1  UNL1        0.0660
@<TRIPOS>BOND
     1     1    14    1
     2     1    15    1
     3    15     2    1
     4     2    18    1
     5    11     3    1
     6     3    40    1
     7    12     4    1
     8     4    41    1
     9     5    13    1
    10     5    42    1
    11     6    16    1
    12     6    46    1
    13     7    17    1
    14     7    27    1
    15     8    25    2
    16     9    28    1
    17     9    32    1
    18    10    31    1
    19    10    53    1
    20    11    12    1
    21    11    13    1
    22    11    33    1
    23    12    14    1
    24    12    34    1
    25    13    15    1
    26    13    35    1
    27    14    16    1
    28    14    36    1
    29    15    37    1
    30    16    38    1
    31    16    39    1
    32    17    19    1
    33    17    20    1
    34    17    43    1
    35    18    21   ar
    36    18    22   ar
    37    19    23   ar
    38    19    24   ar
    39    20    25    1
    40    20    44    1
    41    20    45    1
    42    21    23   ar
    43    21    47    1
    44    22    24   ar
    45    22    48    1
    46    23    49    1
    47    24    50    1
    48    25    26    1
    49    26    27   ar
    50    26    28   ar
    51    27    29   ar
    52    28    30   ar
    53    29    31   ar
    54    29    51    1
    55    30    31   ar
    56    30    52    1
    57    32    54    1
    58    32    55    1
    59    32    56    1
