@<TRIPOS>MOLECULE
IMPHY016492
 51 50 0 0 0
SMALL
GASTEIGER

@<TRIPOS>ATOM
      1 O          12.3923    1.1900    0.0000 O.3     1  UNL1       -0.4648
      2 O          13.2583   -0.3100    0.0000 O.2     1  UNL1       -0.2512
      3 C           6.3301    0.6900    0.0000 C.3     1  UNL1       -0.0525
      4 C           7.1962    1.1900    0.0000 C.3     1  UNL1       -0.0530
      5 C           5.4641    1.1900    0.0000 C.3     1  UNL1       -0.0470
      6 C           8.0622    0.6900    0.0000 C.3     1  UNL1       -0.0531
      7 C           4.5981    0.6900    0.0000 C.3     1  UNL1       -0.0257
      8 C           8.9282    1.1900    0.0000 C.3     1  UNL1       -0.0530
      9 C           9.7942    0.6900    0.0000 C.3     1  UNL1       -0.0500
     10 C          10.6603    1.1900    0.0000 C.3     1  UNL1       -0.0185
     11 C           4.5981   -0.3100    0.0000 C.3     1  UNL1       -0.0590
     12 C           3.7320    1.1900    0.0000 C.2     1  UNL1       -0.0851
     13 C          11.5263    0.6900    0.0000 C.3     1  UNL1        0.0924
     14 C           2.8660    0.6900    0.0000 C.2     1  UNL1       -0.0877
     15 C           2.8660   -0.3100    0.0000 C.3     1  UNL1       -0.0350
     16 C           2.0000   -0.8100    0.0000 C.3     1  UNL1       -0.0525
     17 C           2.0000   -1.8100    0.0000 C.3     1  UNL1       -0.0650
     18 C          13.2583    0.6900    0.0000 C.2     1  UNL1        0.3039
     19 C          14.1244    1.1900    0.0000 C.3     1  UNL1        0.0332
     20 H           5.9316    0.2151    0.0000 H       1  UNL1        0.0265
     21 H           6.7287    0.2151    0.0000 H       1  UNL1        0.0265
     22 H           7.5947    1.6650    0.0000 H       1  UNL1        0.0265
     23 H           6.7976    1.6650    0.0000 H       1  UNL1        0.0265
     24 H           5.8626    1.6650    0.0000 H       1  UNL1        0.0271
     25 H           5.0656    1.6650    0.0000 H       1  UNL1        0.0271
     26 H           7.6636    0.2151    0.0000 H       1  UNL1        0.0265
     27 H           8.4607    0.2151    0.0000 H       1  UNL1        0.0265
     28 H           5.1350    0.3800    0.0000 H       1  UNL1        0.0340
     29 H           9.3267    1.6650    0.0000 H       1  UNL1        0.0265
     30 H           8.5297    1.6650    0.0000 H       1  UNL1        0.0265
     31 H           9.3957    0.2151    0.0000 H       1  UNL1        0.0266
     32 H          10.1928    0.2151    0.0000 H       1  UNL1        0.0266
     33 H          11.0588    1.6650    0.0000 H       1  UNL1        0.0298
     34 H          10.2617    1.6650    0.0000 H       1  UNL1        0.0298
     35 H           3.9781   -0.3100    0.0000 H       1  UNL1        0.0235
     36 H           4.5981   -0.9300    0.0000 H       1  UNL1        0.0235
     37 H           5.2181   -0.3100    0.0000 H       1  UNL1        0.0235
     38 H           3.7320    1.8100    0.0000 H       1  UNL1        0.0572
     39 H          11.1278    0.2151    0.0000 H       1  UNL1        0.0697
     40 H          11.9248    0.2151    0.0000 H       1  UNL1        0.0697
     41 H           2.3291    1.0000    0.0000 H       1  UNL1        0.0569
     42 H           3.0781   -0.8926    0.0000 H       1  UNL1        0.0307
     43 H           3.4766   -0.2023    0.0000 H       1  UNL1        0.0307
     44 H           1.7880   -0.2274    0.0000 H       1  UNL1        0.0266
     45 H           1.3894   -0.9177    0.0000 H       1  UNL1        0.0266
     46 H           1.3800   -1.8100    0.0000 H       1  UNL1        0.0230
     47 H           2.0000   -2.4300    0.0000 H       1  UNL1        0.0230
     48 H           2.6200   -1.8100    0.0000 H       1  UNL1        0.0230
     49 H          14.4344    0.6531    0.0000 H       1  UNL1        0.0342
     50 H          14.6613    1.5000    0.0000 H       1  UNL1        0.0342
     51 H          13.8144    1.7269    0.0000 H       1  UNL1        0.0342
@<TRIPOS>BOND
     1     1    13    1
     2     1    18    1
     3     2    18    2
     4     3     4    1
     5     3     5    1
     6     3    20    1
     7     3    21    1
     8     4     6    1
     9     4    22    1
    10     4    23    1
    11     5     7    1
    12     5    24    1
    13     5    25    1
    14     6     8    1
    15     6    26    1
    16     6    27    1
    17     7    11    1
    18     7    12    1
    19     7    28    1
    20     8     9    1
    21     8    29    1
    22     8    30    1
    23     9    10    1
    24     9    31    1
    25     9    32    1
    26    10    13    1
    27    10    33    1
    28    10    34    1
    29    11    35    1
    30    11    36    1
    31    11    37    1
    32    12    14    2
    33    12    38    1
    34    13    39    1
    35    13    40    1
    36    14    15    1
    37    14    41    1
    38    15    16    1
    39    15    42    1
    40    15    43    1
    41    16    17    1
    42    16    44    1
    43    16    45    1
    44    17    46    1
    45    17    47    1
    46    17    48    1
    47    18    19    1
    48    19    49    1
    49    19    50    1
    50    19    51    1
