@<TRIPOS>MOLECULE
IMPHY002768
 97 105 0 0 0
SMALL
GASTEIGER

@<TRIPOS>ATOM
      1 O           7.3989    2.1051    0.0000 O.3     1  UNL1       -0.3151
      2 O           7.7921    1.0912    0.0000 O.3     1  UNL1       -0.3160
      3 O           9.0224    1.3233    0.0000 O.3     1  UNL1       -0.3087
      4 O           5.2233    0.0380    0.0000 O.3     1  UNL1       -0.4476
      5 O           4.3704    1.8452    0.0000 O.3     1  UNL1       -0.4544
      6 O           5.7857   -1.2579    0.0000 O.3     1  UNL1       -0.4538
      7 O          11.4689   -1.4117    0.0000 O.3     1  UNL1       -0.4525
      8 O           3.5013   -1.9957    0.0000 O.3     1  UNL1       -0.4679
      9 O           5.0644   -2.7416    0.0000 O.2     1  UNL1       -0.2509
     10 O           3.1257    2.6929    0.0000 O.3     1  UNL1       -0.3535
     11 O           3.7177   -0.8182    0.0000 O.2     1  UNL1       -0.2511
     12 O           5.4688    3.1844    0.0000 O.2     1  UNL1       -0.2475
     13 O           7.3980   -1.8907    0.0000 O.2     1  UNL1       -0.2512
     14 O          12.4375    0.1151    0.0000 O.2     1  UNL1       -0.2456
     15 O           9.7934   -4.3742    0.0000 O.2     1  UNL1       -0.4706
     16 C           6.9980    0.3483    0.0000 C.3     1  UNL1        0.0375
     17 C           6.7754    1.3233    0.0000 C.3     1  UNL1        0.1307
     18 C           5.9936    0.6758    0.0000 C.3     1  UNL1        0.2192
     19 C           7.8989   -0.0855    0.0000 C.3     1  UNL1        0.1199
     20 C           4.6639    0.3285    0.0000 C.3     1  UNL1        0.0158
     21 C           5.8389   -0.6004    0.0000 C.3     1  UNL1       -0.0111
     22 C           8.7999    0.3483    0.0000 C.3     1  UNL1        0.1672
     23 C           5.3195    1.6752    0.0000 C.3     1  UNL1       -0.0097
     24 C           5.1436    1.2110    0.0000 C.3     1  UNL1        0.1548
     25 C           6.1510   -0.3271    0.0000 C.3     1  UNL1        0.1843
     26 C           8.3989    2.1051    0.0000 C.3     1  UNL1        0.2847
     27 C           7.8051   -1.1229    0.0000 C.3     1  UNL1       -0.0188
     28 C           7.2205   -0.6266    0.0000 C.3     1  UNL1       -0.0537
     29 C           9.6695   -0.2251    0.0000 C.2     1  UNL1       -0.0150
     30 C           3.6652    0.2787    0.0000 C.3     1  UNL1       -0.0557
     31 C           4.9289   -1.0149    0.0000 C.3     1  UNL1        0.0490
     32 C           9.5996   -1.2644    0.0000 C.3     1  UNL1        0.0337
     33 C           8.6612   -1.7163    0.0000 C.3     1  UNL1       -0.0374
     34 C           9.2999    2.5390    0.0000 C.3     1  UNL1        0.0176
     35 C          10.4914   -1.8825    0.0000 C.3     1  UNL1        0.1403
     36 C          10.6359    0.2682    0.0000 C.2     1  UNL1        0.0253
     37 C           9.5326   -2.2621    0.0000 C.3     1  UNL1       -0.0520
     38 C           4.4983   -1.9175    0.0000 C.2     1  UNL1        0.3071
     39 C           4.2234    0.0445    0.0000 C.2     1  UNL1        0.3048
     40 C           4.5330    2.8319    0.0000 C.2     1  UNL1        0.3421
     41 C           6.4092   -2.0398    0.0000 C.2     1  UNL1        0.3044
     42 C          11.5416   -0.3292    0.0000 C.2     1  UNL1        0.3326
     43 C           3.7599    3.4661    0.0000 C.3     1  UNL1        0.1885
     44 C          10.4128   -2.8794    0.0000 C.ar    1  UNL1        0.0313
     45 C           3.7290    0.9138    0.0000 C.3     1  UNL1        0.0333
     46 C           2.7732    3.6287    0.0000 C.3     1  UNL1        0.0965
     47 C           6.3843   -3.0395    0.0000 C.3     1  UNL1        0.0332
     48 C           3.9225    4.4528    0.0000 C.3     1  UNL1       -0.0228
     49 C          11.1731   -3.5289    0.0000 C.ar    1  UNL1       -0.0172
     50 C           9.5601   -3.4018    0.0000 C.ar    1  UNL1        0.0984
     51 C           3.0706   -2.8982    0.0000 C.3     1  UNL1        0.0817
     52 C           2.0000    4.2629    0.0000 C.3     1  UNL1       -0.0354
     53 C          10.7903   -4.4528    0.0000 C.ar    1  UNL1        0.0921
     54 H           6.3559   -0.9427    0.0000 H       1  UNL1        0.0319
     55 H           5.5082    2.2658    0.0000 H       1  UNL1        0.0301
     56 H           4.7440    1.9058    0.0000 H       1  UNL1        0.0301
     57 H           5.7565    1.3041    0.0000 H       1  UNL1        0.0782
     58 H           5.5379   -0.4195    0.0000 H       1  UNL1        0.0811
     59 H           7.2063   -0.9622    0.0000 H       1  UNL1        0.0294
     60 H           7.5443   -1.6854    0.0000 H       1  UNL1        0.0294
     61 H           6.6160   -0.7645    0.0000 H       1  UNL1        0.0237
     62 H           7.3584   -1.2310    0.0000 H       1  UNL1        0.0237
     63 H           7.8249   -0.4886    0.0000 H       1  UNL1        0.0237
     64 H           3.6343    0.8979    0.0000 H       1  UNL1        0.0236
     65 H           3.0460    0.2479    0.0000 H       1  UNL1        0.0236
     66 H           3.6960   -0.3405    0.0000 H       1  UNL1        0.0236
     67 H           4.8445   -0.4007    0.0000 H       1  UNL1        0.0381
     68 H           4.3163   -0.9196    0.0000 H       1  UNL1        0.0381
     69 H           8.2260   -2.1579    0.0000 H       1  UNL1        0.0276
     70 H           9.0218   -2.2206    0.0000 H       1  UNL1        0.0276
     71 H           9.5689    1.9804    0.0000 H       1  UNL1        0.0307
     72 H           9.8585    2.8080    0.0000 H       1  UNL1        0.0307
     73 H           9.0309    3.0976    0.0000 H       1  UNL1        0.0307
     74 H          11.0030   -2.2327    0.0000 H       1  UNL1        0.0795
     75 H          10.6703    0.8872    0.0000 H       1  UNL1        0.0689
     76 H           8.9140   -2.2206    0.0000 H       1  UNL1        0.0239
     77 H           9.4910   -2.8807    0.0000 H       1  UNL1        0.0239
     78 H          10.1512   -2.3037    0.0000 H       1  UNL1        0.0239
     79 H           4.2679    1.2203    0.0000 H       1  UNL1        0.0342
     80 H           3.4225    1.4527    0.0000 H       1  UNL1        0.0342
     81 H           3.1901    0.6073    0.0000 H       1  UNL1        0.0342
     82 H           2.2693    3.2674    0.0000 H       1  UNL1        0.0628
     83 H           5.7645   -3.0240    0.0000 H       1  UNL1        0.0342
     84 H           6.3689   -3.6593    0.0000 H       1  UNL1        0.0342
     85 H           7.0041   -3.0549    0.0000 H       1  UNL1        0.0342
     86 H           4.5342    4.3519    0.0000 H       1  UNL1        0.0264
     87 H           4.0233    5.0645    0.0000 H       1  UNL1        0.0264
     88 H           3.3108    4.5536    0.0000 H       1  UNL1        0.0264
     89 H          11.7760   -3.3842    0.0000 H       1  UNL1        0.0653
     90 H           8.9873   -3.1644    0.0000 H       1  UNL1        0.1033
     91 H           2.5111   -2.6312    0.0000 H       1  UNL1        0.0661
     92 H           2.8036   -3.4578    0.0000 H       1  UNL1        0.0661
     93 H           3.6302   -3.1652    0.0000 H       1  UNL1        0.0661
     94 H           2.3932    4.7423    0.0000 H       1  UNL1        0.0256
     95 H           1.5206    4.6561    0.0000 H       1  UNL1        0.0256
     96 H           1.6068    3.7835    0.0000 H       1  UNL1        0.0256
     97 H          11.1142   -4.9814    0.0000 H       1  UNL1        0.1029
@<TRIPOS>BOND
     1     1    17    1
     2     1    26    1
     3     2    19    1
     4     2    26    1
     5     3    22    1
     6     3    26    1
     7    18     4    1
     8     4    39    1
     9    24     5    1
    10     5    40    1
    11    25     6    1
    12     6    41    1
    13     7    35    1
    14     7    42    1
    15     8    38    1
    16     8    51    1
    17     9    38    2
    18    10    43    1
    19    10    46    1
    20    11    39    2
    21    12    40    2
    22    13    41    2
    23    14    42    2
    24    15    50   ar
    25    15    53   ar
    26    16    17    1
    27    16    19    1
    28    16    21    1
    29    16    28    1
    30    17    18    1
    31    17    23    1
    32    18    24    1
    33    18    25    1
    34    19    22    1
    35    19    27    1
    36    20    21    1
    37    20    23    1
    38    20    24    1
    39    20    30    1
    40    21    31    1
    41    21    54    1
    42    22    25    1
    43    22    29    1
    44    23    55    1
    45    23    56    1
    46    24    57    1
    47    25    58    1
    48    26    34    1
    49    27    33    1
    50    27    59    1
    51    27    60    1
    52    28    61    1
    53    28    62    1
    54    28    63    1
    55    29    32    1
    56    29    36    2
    57    30    64    1
    58    30    65    1
    59    30    66    1
    60    31    38    1
    61    31    67    1
    62    31    68    1
    63    32    33    1
    64    32    35    1
    65    32    37    1
    66    33    69    1
    67    33    70    1
    68    34    71    1
    69    34    72    1
    70    34    73    1
    71    35    44    1
    72    35    74    1
    73    36    42    1
    74    36    75    1
    75    37    76    1
    76    37    77    1
    77    37    78    1
    78    39    45    1
    79    40    43    1
    80    41    47    1
    81    43    46    1
    82    43    48    1
    83    44    49   ar
    84    44    50   ar
    85    45    79    1
    86    45    80    1
    87    45    81    1
    88    46    52    1
    89    46    82    1
    90    47    83    1
    91    47    84    1
    92    47    85    1
    93    48    86    1
    94    48    87    1
    95    48    88    1
    96    49    53   ar
    97    49    89    1
    98    50    90    1
    99    51    91    1
   100    51    92    1
   101    51    93    1
   102    52    94    1
   103    52    95    1
   104    52    96    1
   105    53    97    1
