@<TRIPOS>MOLECULE
IMPHY003300
 38 40 0 0 0
SMALL
GASTEIGER

@<TRIPOS>ATOM
      1 O           6.3580   -0.9259    0.0000 O.2     1  UNL1       -0.4541
      2 O           2.8660   -0.8913    0.0000 O.3     1  UNL1       -0.4943
      3 O           4.5981    2.1087    0.0000 O.3     1  UNL1       -0.5055
      4 O           6.3465    2.1433    0.0000 O.2     1  UNL1       -0.2869
      5 C           5.4641   -0.3913    0.0000 C.ar    1  UNL1        0.1491
      6 C           5.4641    0.6087    0.0000 C.ar    1  UNL1        0.1060
      7 C           4.5981   -0.8913    0.0000 C.ar    1  UNL1        0.0346
      8 C           3.7320    0.6087    0.0000 C.ar    1  UNL1        0.0337
      9 C           3.7320   -0.3913    0.0000 C.ar    1  UNL1        0.1329
     10 C           4.5981    1.1087    0.0000 C.ar    1  UNL1        0.1376
     11 C           6.3580    1.1434    0.0000 C.ar    1  UNL1        0.1966
     12 C           7.2641   -0.4121    0.0000 C.ar    1  UNL1        0.1392
     13 C           4.5981   -1.8913    0.0000 C.3     1  UNL1       -0.0327
     14 C           7.2641    0.6296    0.0000 C.ar    1  UNL1        0.0288
     15 C           2.8660    1.1087    0.0000 C.3     1  UNL1       -0.0327
     16 C           8.1282   -0.9154    0.0000 C.ar    1  UNL1        0.0174
     17 C           8.1244   -1.9154    0.0000 C.ar    1  UNL1       -0.0511
     18 C           8.9962   -0.4188    0.0000 C.ar    1  UNL1       -0.0511
     19 C           2.0000   -0.3913    0.0000 C.3     1  UNL1        0.0788
     20 C           8.9884   -2.4187    0.0000 C.ar    1  UNL1       -0.0611
     21 C           9.8602   -0.9221    0.0000 C.ar    1  UNL1       -0.0611
     22 C           9.8564   -1.9221    0.0000 C.ar    1  UNL1       -0.0617
     23 H           3.9781   -1.8913    0.0000 H       1  UNL1        0.0280
     24 H           4.5981   -2.5113    0.0000 H       1  UNL1        0.0280
     25 H           5.2181   -1.8913    0.0000 H       1  UNL1        0.0280
     26 H           7.7998    0.9416    0.0000 H       1  UNL1        0.0693
     27 H           3.1760    1.6457    0.0000 H       1  UNL1        0.0280
     28 H           2.3291    1.4187    0.0000 H       1  UNL1        0.0280
     29 H           2.5560    0.5718    0.0000 H       1  UNL1        0.0280
     30 H           4.0611    2.4187    0.0000 H       1  UNL1        0.2922
     31 H           7.5862   -2.2233    0.0000 H       1  UNL1        0.0625
     32 H           8.9985    0.2012    0.0000 H       1  UNL1        0.0625
     33 H           2.3100    0.1457    0.0000 H       1  UNL1        0.0660
     34 H           1.4631   -0.0813    0.0000 H       1  UNL1        0.0660
     35 H           1.6900   -0.9282    0.0000 H       1  UNL1        0.0660
     36 H           8.9860   -3.0387    0.0000 H       1  UNL1        0.0618
     37 H          10.3984   -0.6142    0.0000 H       1  UNL1        0.0618
     38 H          10.3921   -2.2342    0.0000 H       1  UNL1        0.0618
@<TRIPOS>BOND
     1     1     5   ar
     2     1    12   ar
     3     2     9    1
     4     2    19    1
     5     3    10    1
     6     3    30    1
     7     4    11    2
     8     5     6   ar
     9     5     7   ar
    10     6    10   ar
    11     6    11   ar
    12     7     9   ar
    13     7    13    1
    14     8     9   ar
    15     8    10   ar
    16     8    15    1
    17    11    14   ar
    18    12    14   ar
    19    12    16    1
    20    13    23    1
    21    13    24    1
    22    13    25    1
    23    14    26    1
    24    15    27    1
    25    15    28    1
    26    15    29    1
    27    16    17   ar
    28    16    18   ar
    29    17    20   ar
    30    17    31    1
    31    18    21   ar
    32    18    32    1
    33    19    33    1
    34    19    34    1
    35    19    35    1
    36    20    22   ar
    37    20    36    1
    38    21    22   ar
    39    21    37    1
    40    22    38    1
