@<TRIPOS>MOLECULE
IMPHY010345
 69 68 0 0 0
SMALL
GASTEIGER

@<TRIPOS>ATOM
      1 O          12.3923   -1.0950    0.0000 O.3     1  UNL1       -0.3918
      2 O          21.0526   -0.0950    0.0000 O.3     1  UNL1       -0.4806
      3 O          20.1865    1.4050    0.0000 O.2     1  UNL1       -0.2510
      4 C          12.3923   -0.0950    0.0000 C.3     1  UNL1        0.0553
      5 C          11.5263    0.4050    0.0000 C.3     1  UNL1       -0.0269
      6 C          10.6603   -0.0950    0.0000 C.3     1  UNL1       -0.0507
      7 C          13.2583    0.4050    0.0000 C.3     1  UNL1       -0.0269
      8 C           9.7942    0.4050    0.0000 C.3     1  UNL1       -0.0530
      9 C           8.9282   -0.0950    0.0000 C.3     1  UNL1       -0.0531
     10 C          14.1244   -0.0950    0.0000 C.3     1  UNL1       -0.0507
     11 C           8.0622    0.4050    0.0000 C.3     1  UNL1       -0.0531
     12 C          14.9904    0.4050    0.0000 C.3     1  UNL1       -0.0530
     13 C           7.1962   -0.0950    0.0000 C.3     1  UNL1       -0.0531
     14 C          15.8564   -0.0950    0.0000 C.3     1  UNL1       -0.0531
     15 C           6.3301    0.4050    0.0000 C.3     1  UNL1       -0.0531
     16 C           5.4641   -0.0950    0.0000 C.3     1  UNL1       -0.0531
     17 C          16.7224    0.4050    0.0000 C.3     1  UNL1       -0.0530
     18 C           4.5981    0.4050    0.0000 C.3     1  UNL1       -0.0531
     19 C          17.5885   -0.0950    0.0000 C.3     1  UNL1       -0.0526
     20 C           3.7320   -0.0950    0.0000 C.3     1  UNL1       -0.0533
     21 C          18.4545    0.4050    0.0000 C.3     1  UNL1       -0.0430
     22 C           2.8660    0.4050    0.0000 C.3     1  UNL1       -0.0559
     23 C          19.3205   -0.0950    0.0000 C.3     1  UNL1        0.0448
     24 C           2.0000   -0.0950    0.0000 C.3     1  UNL1       -0.0653
     25 C          20.1865    0.4050    0.0000 C.2     1  UNL1        0.3047
     26 H          11.8554   -0.4050    0.0000 H       1  UNL1        0.0593
     27 H          11.9248    0.8799    0.0000 H       1  UNL1        0.0290
     28 H          11.1278    0.8799    0.0000 H       1  UNL1        0.0290
     29 H          10.2617   -0.5699    0.0000 H       1  UNL1        0.0266
     30 H          11.0588   -0.5699    0.0000 H       1  UNL1        0.0266
     31 H          13.6569    0.8799    0.0000 H       1  UNL1        0.0290
     32 H          12.8598    0.8799    0.0000 H       1  UNL1        0.0290
     33 H          10.1928    0.8799    0.0000 H       1  UNL1        0.0265
     34 H           9.3957    0.8799    0.0000 H       1  UNL1        0.0265
     35 H           8.5297   -0.5699    0.0000 H       1  UNL1        0.0265
     36 H           9.3267   -0.5699    0.0000 H       1  UNL1        0.0265
     37 H          13.7258   -0.5699    0.0000 H       1  UNL1        0.0266
     38 H          14.5229   -0.5699    0.0000 H       1  UNL1        0.0266
     39 H           8.4607    0.8799    0.0000 H       1  UNL1        0.0265
     40 H           7.6636    0.8799    0.0000 H       1  UNL1        0.0265
     41 H          15.3889    0.8799    0.0000 H       1  UNL1        0.0265
     42 H          14.5919    0.8799    0.0000 H       1  UNL1        0.0265
     43 H           6.7976   -0.5699    0.0000 H       1  UNL1        0.0265
     44 H           7.5947   -0.5699    0.0000 H       1  UNL1        0.0265
     45 H          15.4579   -0.5699    0.0000 H       1  UNL1        0.0265
     46 H          16.2549   -0.5699    0.0000 H       1  UNL1        0.0265
     47 H           6.7287    0.8799    0.0000 H       1  UNL1        0.0265
     48 H           5.9316    0.8799    0.0000 H       1  UNL1        0.0265
     49 H           5.0656   -0.5699    0.0000 H       1  UNL1        0.0265
     50 H           5.8626   -0.5699    0.0000 H       1  UNL1        0.0265
     51 H          17.1210    0.8799    0.0000 H       1  UNL1        0.0265
     52 H          16.3239    0.8799    0.0000 H       1  UNL1        0.0265
     53 H           4.9966    0.8799    0.0000 H       1  UNL1        0.0265
     54 H           4.1996    0.8799    0.0000 H       1  UNL1        0.0265
     55 H          17.1899   -0.5699    0.0000 H       1  UNL1        0.0265
     56 H          17.9870   -0.5699    0.0000 H       1  UNL1        0.0265
     57 H           3.3335   -0.5699    0.0000 H       1  UNL1        0.0265
     58 H           4.1306   -0.5699    0.0000 H       1  UNL1        0.0265
     59 H          11.8554   -1.4050    0.0000 H       1  UNL1        0.2098
     60 H          18.8530    0.8799    0.0000 H       1  UNL1        0.0270
     61 H          18.0560    0.8799    0.0000 H       1  UNL1        0.0270
     62 H           3.2646    0.8799    0.0000 H       1  UNL1        0.0263
     63 H           2.4675    0.8799    0.0000 H       1  UNL1        0.0263
     64 H          18.9220   -0.5699    0.0000 H       1  UNL1        0.0377
     65 H          19.7190   -0.5699    0.0000 H       1  UNL1        0.0377
     66 H           1.6900    0.4419    0.0000 H       1  UNL1        0.0230
     67 H           1.4631   -0.4050    0.0000 H       1  UNL1        0.0230
     68 H           2.3100   -0.6319    0.0000 H       1  UNL1        0.0230
     69 H          21.5895    0.2150    0.0000 H       1  UNL1        0.2951
@<TRIPOS>BOND
     1     1     4    1
     2     1    59    1
     3     2    25    1
     4     2    69    1
     5     3    25    2
     6     4     5    1
     7     4     7    1
     8     4    26    1
     9     5     6    1
    10     5    27    1
    11     5    28    1
    12     6     8    1
    13     6    29    1
    14     6    30    1
    15     7    10    1
    16     7    31    1
    17     7    32    1
    18     8     9    1
    19     8    33    1
    20     8    34    1
    21     9    11    1
    22     9    35    1
    23     9    36    1
    24    10    12    1
    25    10    37    1
    26    10    38    1
    27    11    13    1
    28    11    39    1
    29    11    40    1
    30    12    14    1
    31    12    41    1
    32    12    42    1
    33    13    15    1
    34    13    43    1
    35    13    44    1
    36    14    17    1
    37    14    45    1
    38    14    46    1
    39    15    16    1
    40    15    47    1
    41    15    48    1
    42    16    18    1
    43    16    49    1
    44    16    50    1
    45    17    19    1
    46    17    51    1
    47    17    52    1
    48    18    20    1
    49    18    53    1
    50    18    54    1
    51    19    21    1
    52    19    55    1
    53    19    56    1
    54    20    22    1
    55    20    57    1
    56    20    58    1
    57    21    23    1
    58    21    60    1
    59    21    61    1
    60    22    24    1
    61    22    62    1
    62    22    63    1
    63    23    25    1
    64    23    64    1
    65    23    65    1
    66    24    66    1
    67    24    67    1
    68    24    68    1
