@<TRIPOS>MOLECULE
IMPHY001809
 66 71 0 0 0
SMALL
GASTEIGER

@<TRIPOS>ATOM
      1 O           3.5621   -0.7026    0.0000 O.3     1  UNL1       -0.3878
      2 O           6.9023    1.8904    0.0000 O.3     1  UNL1       -0.3912
      3 O           3.1854    1.4645    0.0000 O.3     1  UNL1       -0.3910
      4 O           2.7846    2.3483    0.0000 O.3     1  UNL1       -0.3793
      5 O           7.7683   -2.3448    0.0000 O.3     1  UNL1       -0.3824
      6 N           8.0976    0.0613    0.0000 N.3     1  UNL1       -0.2981
      7 C           6.1509    0.4566    0.0000 C.3     1  UNL1        0.0193
      8 C           6.1509   -0.4110    0.0000 C.3     1  UNL1       -0.0220
      9 C           5.4726    0.9975    0.0000 C.3     1  UNL1       -0.0231
     10 C           7.1529    0.3505    0.0000 C.3     1  UNL1        0.0244
     11 C           4.6268   -0.7589    0.0000 C.3     1  UNL1        0.0048
     12 C           4.6268    0.8044    0.0000 C.3     1  UNL1        0.0181
     13 C           4.2504    0.0228    0.0000 C.3     1  UNL1        0.0781
     14 C           6.9023   -0.8448    0.0000 C.3     1  UNL1        0.0104
     15 C           5.4726   -0.9519    0.0000 C.3     1  UNL1       -0.0420
     16 C           6.9023    0.8904    0.0000 C.3     1  UNL1        0.0628
     17 C           5.5504    1.8616    0.0000 C.3     1  UNL1       -0.0416
     18 C           4.7526    2.2026    0.0000 C.3     1  UNL1        0.0120
     19 C           4.1818    1.5492    0.0000 C.3     1  UNL1        0.0661
     20 C           3.6055    0.2927    0.0000 C.3     1  UNL1        0.0034
     21 C           8.0976   -0.6906    0.0000 C.3     1  UNL1        0.0072
     22 C           7.6536   -0.4110    0.0000 C.3     1  UNL1       -0.0415
     23 C           3.6055    1.7772    0.0000 C.3     1  UNL1        0.0661
     24 C           7.6536    0.4566    0.0000 C.3     1  UNL1       -0.0256
     25 C           6.9023   -1.8448    0.0000 C.3     1  UNL1        0.0544
     26 C           8.9016    0.6560    0.0000 C.3     1  UNL1       -0.0036
     27 C           9.8186    0.2571    0.0000 C.3     1  UNL1       -0.0523
     28 C           2.8688    3.3448    0.0000 C.3     1  UNL1        0.0368
     29 C           7.7683   -3.3448    0.0000 C.3     1  UNL1        0.0365
     30 H           6.2145   -1.2586    0.0000 H       1  UNL1        0.0314
     31 H           6.2542    1.3316    0.0000 H       1  UNL1        0.0312
     32 H           7.5974    1.0750    0.0000 H       1  UNL1        0.0473
     33 H           4.0968   -1.4234    0.0000 H       1  UNL1        0.0344
     34 H           3.7777    0.7663    0.0000 H       1  UNL1        0.0357
     35 H           5.9574   -1.3385    0.0000 H       1  UNL1        0.0272
     36 H           5.2036   -1.5105    0.0000 H       1  UNL1        0.0272
     37 H           6.3654    1.2004    0.0000 H       1  UNL1        0.0599
     38 H           5.7332    2.4540    0.0000 H       1  UNL1        0.0272
     39 H           6.1587    1.7418    0.0000 H       1  UNL1        0.0272
     40 H           4.7734    3.0523    0.0000 H       1  UNL1        0.0351
     41 H           3.9017    2.1023    0.0000 H       1  UNL1        0.0600
     42 H           3.4436   -0.3058    0.0000 H       1  UNL1        0.0318
     43 H           2.9909    0.3744    0.0000 H       1  UNL1        0.0318
     44 H           8.7170   -0.6640    0.0000 H       1  UNL1        0.0433
     45 H           8.1506   -1.3083    0.0000 H       1  UNL1        0.0433
     46 H           8.2642   -0.3033    0.0000 H       1  UNL1        0.0273
     47 H           7.8657   -0.9936    0.0000 H       1  UNL1        0.0273
     48 H           3.6836    2.3923    0.0000 H       1  UNL1        0.0600
     49 H           7.8657    1.0392    0.0000 H       1  UNL1        0.0290
     50 H           8.2642    0.3489    0.0000 H       1  UNL1        0.0290
     51 H           6.6902   -2.4274    0.0000 H       1  UNL1        0.0566
     52 H           6.2917   -1.7371    0.0000 H       1  UNL1        0.0566
     53 H           2.9592   -0.5579    0.0000 H       1  UNL1        0.2102
     54 H           8.4519    1.0829    0.0000 H       1  UNL1        0.0424
     55 H           9.2439    1.1730    0.0000 H       1  UNL1        0.0424
     56 H           7.4392    2.2004    0.0000 H       1  UNL1        0.2098
     57 H           2.9220    0.9033    0.0000 H       1  UNL1        0.2098
     58 H          10.0659    0.8256    0.0000 H       1  UNL1        0.0242
     59 H          10.3871    0.0098    0.0000 H       1  UNL1        0.0242
     60 H           9.5712   -0.3114    0.0000 H       1  UNL1        0.0242
     61 H           2.2510    3.3970    0.0000 H       1  UNL1        0.0524
     62 H           2.9210    3.9626    0.0000 H       1  UNL1        0.0524
     63 H           3.4866    3.2926    0.0000 H       1  UNL1        0.0524
     64 H           8.3883   -3.3448    0.0000 H       1  UNL1        0.0523
     65 H           7.7683   -3.9648    0.0000 H       1  UNL1        0.0523
     66 H           7.1483   -3.3448    0.0000 H       1  UNL1        0.0523
@<TRIPOS>BOND
     1    13     1    1
     2     1    53    1
     3    16     2    1
     4     2    56    1
     5    19     3    1
     6     3    57    1
     7    23     4    1
     8     4    28    1
     9     5    25    1
    10     5    29    1
    11     6    10    1
    12     6    21    1
    13     6    26    1
    14     7     8    1
    15     7     9    1
    16     7    10    1
    17     7    16    1
    18     8    14    1
    19     8    15    1
    20     8    30    1
    21     9    12    1
    22     9    17    1
    23     9    31    1
    24    10    11    1
    25    10    32    1
    26    11    13    1
    27    11    15    1
    28    11    33    1
    29    12    13    1
    30    12    19    1
    31    12    34    1
    32    13    20    1
    33    14    21    1
    34    14    22    1
    35    14    25    1
    36    15    35    1
    37    15    36    1
    38    16    24    1
    39    16    37    1
    40    17    18    1
    41    17    38    1
    42    17    39    1
    43    18    19    1
    44    18    23    1
    45    18    40    1
    46    19    41    1
    47    20    23    1
    48    20    42    1
    49    20    43    1
    50    21    44    1
    51    21    45    1
    52    22    24    1
    53    22    46    1
    54    22    47    1
    55    23    48    1
    56    24    49    1
    57    24    50    1
    58    25    51    1
    59    25    52    1
    60    26    27    1
    61    26    54    1
    62    26    55    1
    63    27    58    1
    64    27    59    1
    65    27    60    1
    66    28    61    1
    67    28    62    1
    68    28    63    1
    69    29    64    1
    70    29    65    1
    71    29    66    1
