@<TRIPOS>MOLECULE
IMPHY008202
 65 68 0 0 0
SMALL
GASTEIGER

@<TRIPOS>ATOM
      1 O           9.0482    3.4038    0.0000 O.3     1  UNL1       -0.4610
      2 O           5.5180    4.3796    0.0000 O.3     1  UNL1       -0.3886
      3 O           3.7860    3.3796    0.0000 O.3     1  UNL1       -0.3849
      4 O           4.6520   -0.1204    0.0000 O.3     1  UNL1       -0.4912
      5 O           9.9200    1.9071    0.0000 O.2     1  UNL1       -0.2512
      6 O           2.8760   -3.1272    0.0000 O.2     1  UNL1       -0.4220
      7 O           2.0000   -4.6655    0.0000 O.2     1  UNL1       -0.2452
      8 C           6.3840    1.8796    0.0000 C.3     1  UNL1       -0.0164
      9 C           6.3840    2.8796    0.0000 C.3     1  UNL1        0.0023
     10 C           7.2780    3.4143    0.0000 C.3     1  UNL1        0.0079
     11 C           5.5180    1.3796    0.0000 C.3     1  UNL1        0.0222
     12 C           7.2780    1.3450    0.0000 C.3     1  UNL1       -0.0433
     13 C           5.5180    3.3796    0.0000 C.3     1  UNL1        0.0888
     14 C           8.1841    2.9005    0.0000 C.3     1  UNL1        0.1085
     15 C           8.1841    1.8588    0.0000 C.3     1  UNL1       -0.0146
     16 C           4.6520    2.8796    0.0000 C.3     1  UNL1        0.1025
     17 C           6.3840    0.8796    0.0000 C.3     1  UNL1       -0.0586
     18 C           4.6520    1.8796    0.0000 C.2     1  UNL1       -0.0393
     19 C           7.7680    4.2860    0.0000 C.3     1  UNL1       -0.0561
     20 C           6.7680    4.2745    0.0000 C.3     1  UNL1       -0.0561
     21 C           5.5180    0.3796    0.0000 C.3     1  UNL1        0.0966
     22 C           3.7860    1.3796    0.0000 C.2     1  UNL1       -0.0966
     23 C           9.9161    2.9071    0.0000 C.2     1  UNL1        0.3042
     24 C           4.6520   -1.1204    0.0000 C.ar    1  UNL1        0.1241
     25 C          10.7802    3.4105    0.0000 C.3     1  UNL1        0.0332
     26 C           3.7860   -1.6204    0.0000 C.ar    1  UNL1        0.0231
     27 C           5.5180   -1.6204    0.0000 C.ar    1  UNL1       -0.0192
     28 C           3.7860   -2.6204    0.0000 C.ar    1  UNL1        0.1425
     29 C           5.5180   -2.6204    0.0000 C.ar    1  UNL1       -0.0476
     30 C           4.6520   -3.1204    0.0000 C.ar    1  UNL1        0.0178
     31 C           4.6681   -4.1619    0.0000 C.ar    1  UNL1       -0.0443
     32 C           2.8680   -4.1688    0.0000 C.ar    1  UNL1        0.3372
     33 C           3.7700   -4.6896    0.0000 C.ar    1  UNL1        0.0236
     34 H           6.3775    3.7296    0.0000 H       1  UNL1        0.0338
     35 H           4.9811    1.0696    0.0000 H       1  UNL1        0.0385
     36 H           6.8734    0.8752    0.0000 H       1  UNL1        0.0272
     37 H           7.6716    0.8660    0.0000 H       1  UNL1        0.0272
     38 H           4.9811    3.6896    0.0000 H       1  UNL1        0.0625
     39 H           8.7216    2.5915    0.0000 H       1  UNL1        0.0739
     40 H           8.3931    1.2751    0.0000 H       1  UNL1        0.0301
     41 H           8.7949    1.9649    0.0000 H       1  UNL1        0.0301
     42 H           5.2141    3.4996    0.0000 H       1  UNL1        0.0666
     43 H           5.7640    0.8796    0.0000 H       1  UNL1        0.0235
     44 H           6.3840    0.2596    0.0000 H       1  UNL1        0.0235
     45 H           7.0040    0.8796    0.0000 H       1  UNL1        0.0235
     46 H           8.3084    3.9823    0.0000 H       1  UNL1        0.0236
     47 H           8.0717    4.8265    0.0000 H       1  UNL1        0.0236
     48 H           7.2275    4.5898    0.0000 H       1  UNL1        0.0236
     49 H           7.3013    4.5907    0.0000 H       1  UNL1        0.0236
     50 H           6.4518    4.8078    0.0000 H       1  UNL1        0.0236
     51 H           6.2347    3.9583    0.0000 H       1  UNL1        0.0236
     52 H           5.7301   -0.2030    0.0000 H       1  UNL1        0.0703
     53 H           6.1286    0.4873    0.0000 H       1  UNL1        0.0703
     54 H           4.9811    4.6896    0.0000 H       1  UNL1        0.2099
     55 H           3.2490    1.6896    0.0000 H       1  UNL1        0.0535
     56 H           3.7860    0.7596    0.0000 H       1  UNL1        0.0535
     57 H           3.2490    3.0696    0.0000 H       1  UNL1        0.2103
     58 H          11.0923    2.8747    0.0000 H       1  UNL1        0.0342
     59 H          11.3159    3.7225    0.0000 H       1  UNL1        0.0342
     60 H          10.4681    3.9462    0.0000 H       1  UNL1        0.0342
     61 H           3.2490   -1.3104    0.0000 H       1  UNL1        0.0691
     62 H           6.0550   -1.3104    0.0000 H       1  UNL1        0.0654
     63 H           6.0550   -2.9304    0.0000 H       1  UNL1        0.0626
     64 H           5.2086   -4.4656    0.0000 H       1  UNL1        0.0627
     65 H           3.7724   -5.3096    0.0000 H       1  UNL1        0.0689
@<TRIPOS>BOND
     1    14     1    1
     2     1    23    1
     3    13     2    1
     4     2    54    1
     5    16     3    1
     6     3    57    1
     7     4    21    1
     8     4    24    1
     9     5    23    2
    10     6    28   ar
    11     6    32   ar
    12     7    32    2
    13     8     9    1
    14     8    11    1
    15     8    12    1
    16     8    17    1
    17     9    10    1
    18     9    13    1
    19     9    34    1
    20    10    14    1
    21    10    19    1
    22    10    20    1
    23    11    18    1
    24    11    21    1
    25    11    35    1
    26    12    15    1
    27    12    36    1
    28    12    37    1
    29    13    16    1
    30    13    38    1
    31    14    15    1
    32    14    39    1
    33    15    40    1
    34    15    41    1
    35    16    18    1
    36    16    42    1
    37    17    43    1
    38    17    44    1
    39    17    45    1
    40    18    22    2
    41    19    46    1
    42    19    47    1
    43    19    48    1
    44    20    49    1
    45    20    50    1
    46    20    51    1
    47    21    52    1
    48    21    53    1
    49    22    55    1
    50    22    56    1
    51    23    25    1
    52    24    26   ar
    53    24    27   ar
    54    25    58    1
    55    25    59    1
    56    25    60    1
    57    26    28   ar
    58    26    61    1
    59    27    29   ar
    60    27    62    1
    61    28    30   ar
    62    29    30   ar
    63    29    63    1
    64    30    31   ar
    65    31    33   ar
    66    31    64    1
    67    32    33   ar
    68    33    65    1
