@<TRIPOS>MOLECULE
IMPHY000839
 89 91 0 0 0
SMALL
GASTEIGER

@<TRIPOS>ATOM
      1 O          10.3312   -1.8450    0.0000 O.3     1  UNL1       -0.3366
      2 O           8.5991    0.1550    0.0000 O.3     1  UNL1       -0.3312
      3 O           9.4651   -3.3450    0.0000 O.3     1  UNL1       -0.3405
      4 O           6.8671    1.1550    0.0000 O.3     1  UNL1       -0.3460
      5 O           8.5991   -2.8450    0.0000 O.3     1  UNL1       -0.3863
      6 O           5.1350    1.1550    0.0000 O.3     1  UNL1       -0.3405
      7 O           6.8671   -1.8450    0.0000 O.3     1  UNL1       -0.3865
      8 O          10.3312    0.1550    0.0000 O.3     1  UNL1       -0.4322
      9 O          12.0632   -2.8450    0.0000 O.3     1  UNL1       -0.3841
     10 O          12.0632   -4.8450    0.0000 O.3     1  UNL1       -0.3864
     11 O          10.3312   -5.8450    0.0000 O.3     1  UNL1       -0.3865
     12 O           6.8671    3.1550    0.0000 O.3     1  UNL1       -0.3841
     13 O           5.1350    4.1550    0.0000 O.3     1  UNL1       -0.3864
     14 O           3.4030    3.1550    0.0000 O.3     1  UNL1       -0.3865
     15 O           7.7331   -4.3450    0.0000 O.3     1  UNL1       -0.3924
     16 O           2.5369    1.6550    0.0000 O.3     1  UNL1       -0.3924
     17 O          11.1972    1.6550    0.0000 O.2     1  UNL1       -0.2508
     18 C           9.4651   -1.3450    0.0000 C.3     1  UNL1        0.1520
     19 C           8.5991   -1.8450    0.0000 C.3     1  UNL1        0.1155
     20 C           7.7331   -1.3450    0.0000 C.3     1  UNL1        0.1120
     21 C           7.7331   -0.3450    0.0000 C.3     1  UNL1        0.1144
     22 C           9.4651   -0.3450    0.0000 C.3     1  UNL1        0.2341
     23 C          10.3312   -2.8450    0.0000 C.3     1  UNL1        0.1886
     24 C          11.1972   -3.3450    0.0000 C.3     1  UNL1        0.1341
     25 C          11.1972   -4.3450    0.0000 C.3     1  UNL1        0.1141
     26 C          10.3312   -4.8450    0.0000 C.3     1  UNL1        0.1119
     27 C           6.8671    0.1550    0.0000 C.3     1  UNL1        0.0796
     28 C           9.4651   -4.3450    0.0000 C.3     1  UNL1        0.1130
     29 C           6.0010    1.6550    0.0000 C.3     1  UNL1        0.1880
     30 C           6.0010    2.6550    0.0000 C.3     1  UNL1        0.1341
     31 C           5.1350    3.1550    0.0000 C.3     1  UNL1        0.1141
     32 C           4.2690    2.6550    0.0000 C.3     1  UNL1        0.1119
     33 C           4.2690    1.6550    0.0000 C.3     1  UNL1        0.1130
     34 C           8.5991   -4.8450    0.0000 C.3     1  UNL1        0.0730
     35 C           3.4030    1.1550    0.0000 C.3     1  UNL1        0.0730
     36 C          10.3312    1.1550    0.0000 C.2     1  UNL1        0.3093
     37 C           9.4651    1.6550    0.0000 C.3     1  UNL1        0.0450
     38 C           9.4651    2.6550    0.0000 C.3     1  UNL1       -0.0430
     39 C          10.3312    3.1550    0.0000 C.3     1  UNL1       -0.0526
     40 C          10.3312    4.1550    0.0000 C.3     1  UNL1       -0.0531
     41 C          11.1972    4.6550    0.0000 C.3     1  UNL1       -0.0533
     42 C          11.1972    5.6550    0.0000 C.3     1  UNL1       -0.0559
     43 C          12.0632    6.1550    0.0000 C.3     1  UNL1       -0.0653
     44 H          10.0021   -1.0350    0.0000 H       1  UNL1        0.0687
     45 H           8.0622   -2.1550    0.0000 H       1  UNL1        0.0648
     46 H           7.1962   -1.0350    0.0000 H       1  UNL1        0.0647
     47 H           7.7331    0.2750    0.0000 H       1  UNL1        0.0647
     48 H           9.4651    0.2750    0.0000 H       1  UNL1        0.1085
     49 H           9.7942   -2.5350    0.0000 H       1  UNL1        0.0938
     50 H          11.7341   -3.6550    0.0000 H       1  UNL1        0.0671
     51 H          11.1972   -4.9650    0.0000 H       1  UNL1        0.0648
     52 H           9.7942   -5.1550    0.0000 H       1  UNL1        0.0647
     53 H           6.2565    0.2627    0.0000 H       1  UNL1        0.0587
     54 H           6.6550   -0.4276    0.0000 H       1  UNL1        0.0587
     55 H           8.9282   -4.0350    0.0000 H       1  UNL1        0.0647
     56 H           6.5380    1.9650    0.0000 H       1  UNL1        0.0937
     57 H           6.0010    3.2750    0.0000 H       1  UNL1        0.0671
     58 H           4.5981    3.4650    0.0000 H       1  UNL1        0.0648
     59 H           4.8311    3.2750    0.0000 H       1  UNL1        0.0647
     60 H           4.2690    1.0350    0.0000 H       1  UNL1        0.0647
     61 H           8.2006   -5.3200    0.0000 H       1  UNL1        0.0584
     62 H           8.9976   -5.3200    0.0000 H       1  UNL1        0.0584
     63 H           8.0622   -3.1550    0.0000 H       1  UNL1        0.2100
     64 H           6.3301   -1.5350    0.0000 H       1  UNL1        0.2100
     65 H           3.0044    0.6801    0.0000 H       1  UNL1        0.0584
     66 H           3.8015    0.6801    0.0000 H       1  UNL1        0.0584
     67 H          12.6002   -3.1550    0.0000 H       1  UNL1        0.2101
     68 H          12.0632   -5.4650    0.0000 H       1  UNL1        0.2100
     69 H           9.7942   -6.1550    0.0000 H       1  UNL1        0.2100
     70 H           6.8671    3.7750    0.0000 H       1  UNL1        0.2101
     71 H           4.5981    4.4650    0.0000 H       1  UNL1        0.2100
     72 H           3.4030    3.7750    0.0000 H       1  UNL1        0.2100
     73 H           8.8546    1.7627    0.0000 H       1  UNL1        0.0377
     74 H           9.2531    1.0724    0.0000 H       1  UNL1        0.0377
     75 H           7.1962   -4.6550    0.0000 H       1  UNL1        0.2095
     76 H           9.2531    3.2376    0.0000 H       1  UNL1        0.0270
     77 H           8.8546    2.5473    0.0000 H       1  UNL1        0.0270
     78 H           2.0000    1.3450    0.0000 H       1  UNL1        0.2095
     79 H          10.5432    2.5724    0.0000 H       1  UNL1        0.0265
     80 H          10.9417    3.2627    0.0000 H       1  UNL1        0.0265
     81 H          10.1191    4.7376    0.0000 H       1  UNL1        0.0265
     82 H           9.7206    4.0473    0.0000 H       1  UNL1        0.0265
     83 H          11.4092    4.0724    0.0000 H       1  UNL1        0.0265
     84 H          11.8078    4.7627    0.0000 H       1  UNL1        0.0265
     85 H          10.9851    6.2376    0.0000 H       1  UNL1        0.0263
     86 H          10.5866    5.5473    0.0000 H       1  UNL1        0.0263
     87 H          12.3732    5.6181    0.0000 H       1  UNL1        0.0230
     88 H          12.6002    6.4650    0.0000 H       1  UNL1        0.0230
     89 H          11.7532    6.6919    0.0000 H       1  UNL1        0.0230
@<TRIPOS>BOND
     1    18     1    1
     2    23     1    1
     3     2    21    1
     4     2    22    1
     5     3    23    1
     6     3    28    1
     7     4    27    1
     8    29     4    1
     9    19     5    1
    10     5    63    1
    11     6    29    1
    12     6    33    1
    13    20     7    1
    14     7    64    1
    15    22     8    1
    16     8    36    1
    17    24     9    1
    18     9    67    1
    19    25    10    1
    20    10    68    1
    21    26    11    1
    22    11    69    1
    23    30    12    1
    24    12    70    1
    25    31    13    1
    26    13    71    1
    27    32    14    1
    28    14    72    1
    29    15    34    1
    30    15    75    1
    31    16    35    1
    32    16    78    1
    33    17    36    2
    34    18    19    1
    35    18    22    1
    36    18    44    1
    37    19    20    1
    38    19    45    1
    39    20    21    1
    40    20    46    1
    41    21    27    1
    42    21    47    1
    43    22    48    1
    44    23    24    1
    45    23    49    1
    46    24    25    1
    47    24    50    1
    48    25    26    1
    49    25    51    1
    50    26    28    1
    51    26    52    1
    52    27    53    1
    53    27    54    1
    54    28    34    1
    55    28    55    1
    56    29    30    1
    57    29    56    1
    58    30    31    1
    59    30    57    1
    60    31    32    1
    61    31    58    1
    62    32    33    1
    63    32    59    1
    64    33    35    1
    65    33    60    1
    66    34    61    1
    67    34    62    1
    68    35    65    1
    69    35    66    1
    70    36    37    1
    71    37    38    1
    72    37    73    1
    73    37    74    1
    74    38    39    1
    75    38    76    1
    76    38    77    1
    77    39    40    1
    78    39    79    1
    79    39    80    1
    80    40    41    1
    81    40    81    1
    82    40    82    1
    83    41    42    1
    84    41    83    1
    85    41    84    1
    86    42    43    1
    87    42    85    1
    88    42    86    1
    89    43    87    1
    90    43    88    1
    91    43    89    1
