@<TRIPOS>MOLECULE
IMPHY001463
 53 55 0 0 0
SMALL
GASTEIGER

@<TRIPOS>ATOM
      1 O          10.6882   -0.9397    0.0000 O.3     1  UNL1       -0.4778
      2 O           8.9282   -1.9050    0.0000 O.3     1  UNL1       -0.4914
      3 O           8.9282    2.0950    0.0000 O.3     1  UNL1       -0.5053
      4 O           7.1962    2.0950    0.0000 O.2     1  UNL1       -0.2872
      5 O           2.0000    1.0950    0.0000 O.3     1  UNL1       -0.4914
      6 O           2.0000   -0.9050    0.0000 O.3     1  UNL1       -0.4915
      7 C          11.5942   -0.4258    0.0000 C.3     1  UNL1        0.1237
      8 C           9.7942   -0.4050    0.0000 C.ar    1  UNL1        0.1737
      9 C          11.5942    0.6158    0.0000 C.2     1  UNL1       -0.0408
     10 C           9.7942    0.5950    0.0000 C.ar    1  UNL1        0.0623
     11 C          12.5942   -0.4297    0.0000 C.3     1  UNL1       -0.0215
     12 C          12.0909   -1.2938    0.0000 C.3     1  UNL1       -0.0215
     13 C          10.6882    1.1297    0.0000 C.2     1  UNL1       -0.0477
     14 C           8.9282    1.0950    0.0000 C.ar    1  UNL1        0.1385
     15 C           8.9282   -0.9050    0.0000 C.ar    1  UNL1        0.1630
     16 C           8.0622    0.5950    0.0000 C.ar    1  UNL1        0.0673
     17 C           8.0622   -0.4050    0.0000 C.ar    1  UNL1       -0.0019
     18 C           7.1962    1.0950    0.0000 C.2     1  UNL1        0.1897
     19 C           6.3301    0.5950    0.0000 C.2     1  UNL1       -0.0137
     20 C           8.0622   -2.4050    0.0000 C.3     1  UNL1        0.0790
     21 C           5.4641    1.0950    0.0000 C.2     1  UNL1       -0.0508
     22 C           4.5981    0.5950    0.0000 C.ar    1  UNL1       -0.0212
     23 C           3.7320    1.0950    0.0000 C.ar    1  UNL1       -0.0092
     24 C           4.5981   -0.4050    0.0000 C.ar    1  UNL1       -0.0509
     25 C           2.8660    0.5950    0.0000 C.ar    1  UNL1        0.1620
     26 C           2.8660   -0.4050    0.0000 C.ar    1  UNL1        0.1615
     27 C           3.7320   -0.9050    0.0000 C.ar    1  UNL1       -0.0157
     28 C           2.0000    2.0950    0.0000 C.3     1  UNL1        0.0790
     29 C           2.0000   -1.9050    0.0000 C.3     1  UNL1        0.0790
     30 H          12.1300    0.9279    0.0000 H       1  UNL1        0.0611
     31 H          12.5918   -1.0497    0.0000 H       1  UNL1        0.0271
     32 H          13.2142   -0.4321    0.0000 H       1  UNL1        0.0271
     33 H          12.5966    0.1903    0.0000 H       1  UNL1        0.0271
     34 H          11.5528   -1.6017    0.0000 H       1  UNL1        0.0271
     35 H          12.3988   -1.8319    0.0000 H       1  UNL1        0.0271
     36 H          12.6290   -0.9858    0.0000 H       1  UNL1        0.0271
     37 H          10.6810    1.7496    0.0000 H       1  UNL1        0.0624
     38 H           7.5252   -0.7150    0.0000 H       1  UNL1        0.0663
     39 H           9.4651    2.4050    0.0000 H       1  UNL1        0.2922
     40 H           6.3301   -0.0250    0.0000 H       1  UNL1        0.0656
     41 H           7.7522   -1.8681    0.0000 H       1  UNL1        0.0660
     42 H           7.5252   -2.7150    0.0000 H       1  UNL1        0.0660
     43 H           8.3722   -2.9419    0.0000 H       1  UNL1        0.0660
     44 H           5.4641    1.7150    0.0000 H       1  UNL1        0.0625
     45 H           3.7320    1.7150    0.0000 H       1  UNL1        0.0661
     46 H           5.1350   -0.7150    0.0000 H       1  UNL1        0.0625
     47 H           3.7320   -1.5250    0.0000 H       1  UNL1        0.0655
     48 H           2.6200    2.0950    0.0000 H       1  UNL1        0.0660
     49 H           2.0000    2.7150    0.0000 H       1  UNL1        0.0660
     50 H           1.3800    2.0950    0.0000 H       1  UNL1        0.0660
     51 H           1.3800   -1.9050    0.0000 H       1  UNL1        0.0660
     52 H           2.0000   -2.5250    0.0000 H       1  UNL1        0.0660
     53 H           2.6200   -1.9050    0.0000 H       1  UNL1        0.0660
@<TRIPOS>BOND
     1     1     7    1
     2     1     8    1
     3     2    15    1
     4     2    20    1
     5     3    14    1
     6     3    39    1
     7     4    18    2
     8     5    25    1
     9     5    28    1
    10     6    26    1
    11     6    29    1
    12     7     9    1
    13     7    11    1
    14     7    12    1
    15     8    10   ar
    16     8    15   ar
    17     9    13    2
    18     9    30    1
    19    10    13    1
    20    10    14   ar
    21    11    31    1
    22    11    32    1
    23    11    33    1
    24    12    34    1
    25    12    35    1
    26    12    36    1
    27    13    37    1
    28    14    16   ar
    29    15    17   ar
    30    16    17   ar
    31    16    18    1
    32    17    38    1
    33    18    19    1
    34    19    21    2
    35    19    40    1
    36    20    41    1
    37    20    42    1
    38    20    43    1
    39    21    22    1
    40    21    44    1
    41    22    23   ar
    42    22    24   ar
    43    23    25   ar
    44    23    45    1
    45    24    27   ar
    46    24    46    1
    47    25    26   ar
    48    26    27   ar
    49    27    47    1
    50    28    48    1
    51    28    49    1
    52    28    50    1
    53    29    51    1
    54    29    52    1
    55    29    53    1
