@<TRIPOS>MOLECULE
IMPHY009646
 33 34 0 0 0
SMALL
GASTEIGER

@<TRIPOS>ATOM
      1 CL          2.0000    0.5000    0.0000 Cl      1  UNL1       -0.1251
      2 O           7.5870    1.2552    0.0000 O.2     1  UNL1       -0.2917
      3 C           7.8600   -0.5000    0.0000 C.3     1  UNL1        0.0233
      4 C           7.2764   -1.3047    0.0000 C.3     1  UNL1       -0.0174
      5 C           6.3301   -1.0000    0.0000 C.ar    1  UNL1       -0.0357
      6 C           6.3301    0.0000    0.0000 C.ar    1  UNL1        0.0240
      7 C           7.2764    0.3047    0.0000 C.2     1  UNL1        0.1668
      8 C           5.4641    0.5000    0.0000 C.ar    1  UNL1       -0.0363
      9 C           4.5981    0.0000    0.0000 C.ar    1  UNL1       -0.0398
     10 C           5.4641   -1.5000    0.0000 C.ar    1  UNL1       -0.0547
     11 C           4.5981   -1.0000    0.0000 C.ar    1  UNL1       -0.0467
     12 C           8.8600   -0.5000    0.0000 C.3     1  UNL1       -0.0551
     13 C           3.7320    0.5000    0.0000 C.3     1  UNL1       -0.0137
     14 C           5.4641    1.5000    0.0000 C.3     1  UNL1       -0.0388
     15 C           3.7320   -1.5000    0.0000 C.3     1  UNL1       -0.0394
     16 C           2.8660    0.0000    0.0000 C.3     1  UNL1        0.0266
     17 H           8.1417   -1.0523    0.0000 H       1  UNL1        0.0381
     18 H           7.0253   -1.8716    0.0000 H       1  UNL1        0.0320
     19 H           7.8137   -1.6140    0.0000 H       1  UNL1        0.0320
     20 H           5.4641   -2.1200    0.0000 H       1  UNL1        0.0623
     21 H           8.8600   -1.1200    0.0000 H       1  UNL1        0.0237
     22 H           9.4800   -0.5000    0.0000 H       1  UNL1        0.0237
     23 H           8.8600    0.1200    0.0000 H       1  UNL1        0.0237
     24 H           4.1306    0.9749    0.0000 H       1  UNL1        0.0325
     25 H           3.3335    0.9749    0.0000 H       1  UNL1        0.0325
     26 H           6.0841    1.5000    0.0000 H       1  UNL1        0.0278
     27 H           5.4641    2.1200    0.0000 H       1  UNL1        0.0278
     28 H           4.8441    1.5000    0.0000 H       1  UNL1        0.0278
     29 H           3.4220   -0.9631    0.0000 H       1  UNL1        0.0278
     30 H           3.1951   -1.8100    0.0000 H       1  UNL1        0.0278
     31 H           4.0420   -2.0369    0.0000 H       1  UNL1        0.0278
     32 H           2.4675   -0.4749    0.0000 H       1  UNL1        0.0433
     33 H           3.2646   -0.4749    0.0000 H       1  UNL1        0.0433
@<TRIPOS>BOND
     1     1    16    1
     2     2     7    2
     3     3     4    1
     4     3     7    1
     5     3    12    1
     6     3    17    1
     7     4     5    1
     8     4    18    1
     9     4    19    1
    10     5     6   ar
    11     5    10   ar
    12     6     7    1
    13     6     8   ar
    14     8     9   ar
    15     8    14    1
    16     9    11   ar
    17     9    13    1
    18    10    11   ar
    19    10    20    1
    20    11    15    1
    21    12    21    1
    22    12    22    1
    23    12    23    1
    24    13    16    1
    25    13    24    1
    26    13    25    1
    27    14    26    1
    28    14    27    1
    29    14    28    1
    30    15    29    1
    31    15    30    1
    32    15    31    1
    33    16    32    1
    34    16    33    1
