@<TRIPOS>MOLECULE
IMPHY008384
 49 51 0 0 0
SMALL
GASTEIGER

@<TRIPOS>ATOM
      1 O           3.7230   -2.5486    0.0000 O.3     1  UNL1       -0.4570
      2 O           7.0268   -4.5372    0.0000 O.3     1  UNL1       -0.3915
      3 O           4.5447    0.6168    0.0000 O.3     1  UNL1       -0.4570
      4 O           2.0000   -2.1164    0.0000 O.2     1  UNL1       -0.2453
      5 O           6.1053    1.3683    0.0000 O.2     1  UNL1       -0.2452
      6 O           4.8036    4.0712    0.0000 O.3     1  UNL1       -0.3902
      7 C           5.4786   -2.4748    0.0000 C.3     1  UNL1        0.0084
      8 C           6.3796   -2.0409    0.0000 C.3     1  UNL1       -0.0112
      9 C           5.6146   -3.4595    0.0000 C.3     1  UNL1       -0.0110
     10 C           4.5777   -2.0409    0.0000 C.3     1  UNL1        0.1174
     11 C           7.0647   -2.7612    0.0000 C.3     1  UNL1       -0.0197
     12 C           6.5929   -3.6362    0.0000 C.3     1  UNL1        0.0587
     13 C           4.3551   -1.0660    0.0000 C.3     1  UNL1        0.0650
     14 C           6.6021   -1.0660    0.0000 C.2     1  UNL1       -0.0696
     15 C           4.9786   -0.2842    0.0000 C.3     1  UNL1        0.1174
     16 C           5.9786   -0.2842    0.0000 C.3     1  UNL1        0.0063
     17 C           4.8930   -4.1518    0.0000 C.3     1  UNL1       -0.0597
     18 C           3.3648   -0.9795    0.0000 C.2     1  UNL1        0.0396
     19 C           2.9749   -1.8939    0.0000 C.2     1  UNL1        0.3354
     20 C           7.5770   -0.8435    0.0000 C.2     1  UNL1       -0.0991
     21 C           2.8504   -0.1219    0.0000 C.2     1  UNL1       -0.0882
     22 C           5.1081    1.4430    0.0000 C.2     1  UNL1        0.3371
     23 C           4.6742    2.3440    0.0000 C.2     1  UNL1        0.0546
     24 C           5.2375    3.1702    0.0000 C.3     1  UNL1        0.0754
     25 C           3.6770    2.4188    0.0000 C.2     1  UNL1       -0.0865
     26 H           4.7916   -2.9753    0.0000 H       1  UNL1        0.0346
     27 H           7.1993   -1.8158    0.0000 H       1  UNL1        0.0350
     28 H           5.0290   -3.2560    0.0000 H       1  UNL1        0.0327
     29 H           4.6147   -2.8901    0.0000 H       1  UNL1        0.0744
     30 H           7.5765   -3.1112    0.0000 H       1  UNL1        0.0296
     31 H           7.4666   -2.2891    0.0000 H       1  UNL1        0.0296
     32 H           7.2127   -3.6504    0.0000 H       1  UNL1        0.0596
     33 H           4.0200   -0.2848    0.0000 H       1  UNL1        0.0423
     34 H           5.3085    0.2408    0.0000 H       1  UNL1        0.0744
     35 H           6.5372   -0.0152    0.0000 H       1  UNL1        0.0346
     36 H           5.8407    0.3203    0.0000 H       1  UNL1        0.0346
     37 H           4.4638   -3.7045    0.0000 H       1  UNL1        0.0233
     38 H           4.4456   -4.5811    0.0000 H       1  UNL1        0.0233
     39 H           5.3223   -4.5992    0.0000 H       1  UNL1        0.0233
     40 H           7.6450   -4.5835    0.0000 H       1  UNL1        0.2098
     41 H           7.9988   -1.2980    0.0000 H       1  UNL1        0.0535
     42 H           7.7598   -0.2510    0.0000 H       1  UNL1        0.0535
     43 H           3.1514    0.4201    0.0000 H       1  UNL1        0.0540
     44 H           2.2305   -0.1322    0.0000 H       1  UNL1        0.0540
     45 H           5.6813    2.7374    0.0000 H       1  UNL1        0.0609
     46 H           5.7409    3.5322    0.0000 H       1  UNL1        0.0609
     47 H           3.4080    2.9774    0.0000 H       1  UNL1        0.0540
     48 H           3.3277    1.9065    0.0000 H       1  UNL1        0.0540
     49 H           5.1529    4.5835    0.0000 H       1  UNL1        0.2099
@<TRIPOS>BOND
     1     1    10    1
     2     1    19    1
     3    12     2    1
     4     2    40    1
     5    15     3    1
     6     3    22    1
     7     4    19    2
     8     5    22    2
     9     6    24    1
    10     6    49    1
    11     7     8    1
    12     7     9    1
    13     7    10    1
    14     7    26    1
    15     8    11    1
    16     8    14    1
    17     8    27    1
    18     9    12    1
    19     9    17    1
    20     9    28    1
    21    10    13    1
    22    10    29    1
    23    11    12    1
    24    11    30    1
    25    11    31    1
    26    12    32    1
    27    13    15    1
    28    13    18    1
    29    13    33    1
    30    14    16    1
    31    14    20    2
    32    15    16    1
    33    15    34    1
    34    16    35    1
    35    16    36    1
    36    17    37    1
    37    17    38    1
    38    17    39    1
    39    18    19    1
    40    18    21    2
    41    20    41    1
    42    20    42    1
    43    21    43    1
    44    21    44    1
    45    22    23    1
    46    23    24    1
    47    23    25    2
    48    24    45    1
    49    24    46    1
    50    25    47    1
    51    25    48    1
