@<TRIPOS>MOLECULE
IMPHY016488
 39 42 0 0 0
SMALL
GASTEIGER

@<TRIPOS>ATOM
      1 O           5.5981    2.4833    0.0000 O.2     1  UNL1       -0.2960
      2 C           3.0000   -0.0167    0.0000 C.3     1  UNL1       -0.0100
      3 C           3.8660   -0.5167    0.0000 C.3     1  UNL1        0.0045
      4 C           2.9997   -1.0172    0.0000 C.3     1  UNL1       -0.0237
      5 C           3.6568   -1.4886    0.0000 C.3     1  UNL1       -0.0221
      6 C           2.6681   -1.5916    0.0000 C.3     1  UNL1       -0.0342
      7 C           2.2630   -0.6838    0.0000 C.3     1  UNL1       -0.0424
      8 C           3.6634   -1.7833    0.0000 C.3     1  UNL1       -0.0455
      9 C           3.0000    0.9833    0.0000 C.3     1  UNL1       -0.0241
     10 C           4.7320   -0.0167    0.0000 C.2     1  UNL1       -0.0702
     11 C           3.8660    1.4833    0.0000 C.3     1  UNL1       -0.0192
     12 C           4.6346   -1.6982    0.0000 C.3     1  UNL1       -0.0587
     13 C           3.7596   -2.4833    0.0000 C.3     1  UNL1       -0.0587
     14 C           4.7320    0.9833    0.0000 C.2     1  UNL1       -0.0110
     15 C           2.5000    1.8493    0.0000 C.3     1  UNL1       -0.0590
     16 C           2.0000    0.9833    0.0000 C.3     1  UNL1       -0.0590
     17 C           5.5981    1.4833    0.0000 C.2     1  UNL1        0.1460
     18 H           2.4188   -1.2337    0.0000 H       1  UNL1        0.0315
     19 H           2.2828   -2.0773    0.0000 H       1  UNL1        0.0306
     20 H           1.8976   -0.1830    0.0000 H       1  UNL1        0.0274
     21 H           1.7265   -0.9946    0.0000 H       1  UNL1        0.0274
     22 H           3.7321   -2.3995    0.0000 H       1  UNL1        0.0271
     23 H           4.2314   -1.5347    0.0000 H       1  UNL1        0.0271
     24 H           5.2690   -0.3267    0.0000 H       1  UNL1        0.0582
     25 H           4.2646    1.9582    0.0000 H       1  UNL1        0.0319
     26 H           3.4675    1.9582    0.0000 H       1  UNL1        0.0319
     27 H           4.5046   -2.3044    0.0000 H       1  UNL1        0.0235
     28 H           5.2408   -1.8281    0.0000 H       1  UNL1        0.0235
     29 H           4.7646   -1.0919    0.0000 H       1  UNL1        0.0235
     30 H           3.1429   -2.5470    0.0000 H       1  UNL1        0.0235
     31 H           3.8234   -3.1000    0.0000 H       1  UNL1        0.0235
     32 H           4.3763   -2.4195    0.0000 H       1  UNL1        0.0235
     33 H           3.0369    2.1593    0.0000 H       1  UNL1        0.0235
     34 H           2.1900    2.3862    0.0000 H       1  UNL1        0.0235
     35 H           1.9631    1.5393    0.0000 H       1  UNL1        0.0235
     36 H           2.0000    1.6033    0.0000 H       1  UNL1        0.0235
     37 H           1.3800    0.9833    0.0000 H       1  UNL1        0.0235
     38 H           2.0000    0.3633    0.0000 H       1  UNL1        0.0235
     39 H           6.1350    1.1733    0.0000 H       1  UNL1        0.1078
@<TRIPOS>BOND
     1     1    17    2
     2     2     3    1
     3     2     4    1
     4     2     7    1
     5     2     9    1
     6     3     4    1
     7     3     5    1
     8     3    10    1
     9     4     8    1
    10     4    18    1
    11     5     6    1
    12     5    12    1
    13     5    13    1
    14     6     7    1
    15     6     8    1
    16     6    19    1
    17     7    20    1
    18     7    21    1
    19     8    22    1
    20     8    23    1
    21     9    11    1
    22     9    15    1
    23     9    16    1
    24    10    14    2
    25    10    24    1
    26    11    14    1
    27    11    25    1
    28    11    26    1
    29    12    27    1
    30    12    28    1
    31    12    29    1
    32    13    30    1
    33    13    31    1
    34    13    32    1
    35    14    17    1
    36    15    33    1
    37    15    34    1
    38    15    35    1
    39    16    36    1
    40    16    37    1
    41    16    38    1
    42    17    39    1
