@<TRIPOS>MOLECULE
IMPHY017810
 20 21 0 0 0
SMALL
GASTEIGER

@<TRIPOS>ATOM
      1 O           2.1077   -0.9932    0.0000 O.3     1  UNL1       -0.3918
      2 C           5.0974   -0.3447    0.0000 C.3     1  UNL1       -0.0382
      3 C           5.3562    0.6212    0.0000 C.3     1  UNL1       -0.0382
      4 C           6.4963   -0.3359    0.0000 C.3     1  UNL1       -0.0472
      5 C           4.6196    1.6038    0.0000 C.3     1  UNL1       -0.0472
      6 C           3.8764   -1.2104    0.0000 C.3     1  UNL1       -0.0240
      7 C           3.3230    0.3101    0.0000 C.3     1  UNL1       -0.0240
      8 C           3.0473   -0.6512    0.0000 C.3     1  UNL1        0.0558
      9 H           5.2874   -0.9349    0.0000 H       1  UNL1        0.0302
     10 H           5.8066    1.0474    0.0000 H       1  UNL1        0.0302
     11 H           6.6766   -0.9291    0.0000 H       1  UNL1        0.0271
     12 H           7.0137    0.0058    0.0000 H       1  UNL1        0.0271
     13 H           4.9374    2.1362    0.0000 H       1  UNL1        0.0271
     14 H           4.0065    1.6958    0.0000 H       1  UNL1        0.0271
     15 H           3.4706   -1.6791    0.0000 H       1  UNL1        0.0293
     16 H           4.2930   -1.6695    0.0000 H       1  UNL1        0.0293
     17 H           3.3179    0.9300    0.0000 H       1  UNL1        0.0293
     18 H           2.7087    0.3938    0.0000 H       1  UNL1        0.0293
     19 H           2.5939   -0.2284    0.0000 H       1  UNL1        0.0593
     20 H           2.0000   -1.6038    0.0000 H       1  UNL1        0.2098
@<TRIPOS>BOND
     1     1     8    1
     2     1    20    1
     3     2     4    1
     4     2     5    1
     5     2     6    1
     6     2     9    1
     7     3     4    1
     8     3     5    1
     9     3     7    1
    10     3    10    1
    11     4    11    1
    12     4    12    1
    13     5    13    1
    14     5    14    1
    15     6     8    1
    16     6    15    1
    17     6    16    1
    18     7     8    1
    19     7    17    1
    20     7    18    1
    21     8    19    1
