@<TRIPOS>MOLECULE
IMPHY016348
 40 41 0 0 0
SMALL
GASTEIGER

@<TRIPOS>ATOM
      1 O           8.1282   -0.7742    0.0000 O.2     1  UNL1       -0.2927
      2 C           5.4641   -0.2500    0.0000 C.3     1  UNL1       -0.0160
      3 C           5.4641    0.7500    0.0000 C.3     1  UNL1       -0.0079
      4 C           4.5981   -0.7500    0.0000 C.3     1  UNL1       -0.0434
      5 C           3.7320   -0.2500    0.0000 C.3     1  UNL1       -0.0381
      6 C           4.5981    1.2500    0.0000 C.3     1  UNL1       -0.0434
      7 C           3.7320    0.7500    0.0000 C.3     1  UNL1       -0.0492
      8 C           6.3580   -0.7847    0.0000 C.3     1  UNL1        0.0160
      9 C           2.8660   -0.7500    0.0000 C.3     1  UNL1       -0.0439
     10 C           5.4641   -1.2500    0.0000 C.3     1  UNL1       -0.0584
     11 C           5.4641    1.7500    0.0000 C.3     1  UNL1       -0.0556
     12 C           6.3580    1.2847    0.0000 C.2     1  UNL1       -0.0743
     13 C           7.2641   -0.2708    0.0000 C.2     1  UNL1        0.1564
     14 C           7.2641    0.7708    0.0000 C.2     1  UNL1       -0.0226
     15 C           2.0000   -0.2500    0.0000 C.3     1  UNL1       -0.0624
     16 C           2.8660   -1.7500    0.0000 C.3     1  UNL1       -0.0624
     17 H           4.1996   -1.2250    0.0000 H       1  UNL1        0.0274
     18 H           4.9966   -1.2250    0.0000 H       1  UNL1        0.0274
     19 H           4.2690    0.0600    0.0000 H       1  UNL1        0.0303
     20 H           4.9966    1.7250    0.0000 H       1  UNL1        0.0274
     21 H           4.1996    1.7250    0.0000 H       1  UNL1        0.0274
     22 H           3.5200    1.3326    0.0000 H       1  UNL1        0.0268
     23 H           3.1215    0.6423    0.0000 H       1  UNL1        0.0268
     24 H           5.9534   -1.2544    0.0000 H       1  UNL1        0.0350
     25 H           6.7517   -1.2637    0.0000 H       1  UNL1        0.0350
     26 H           2.8660   -0.1300    0.0000 H       1  UNL1        0.0298
     27 H           4.8441   -1.2500    0.0000 H       1  UNL1        0.0235
     28 H           5.4641   -1.8700    0.0000 H       1  UNL1        0.0235
     29 H           6.0841   -1.2500    0.0000 H       1  UNL1        0.0235
     30 H           6.0841    1.7500    0.0000 H       1  UNL1        0.0238
     31 H           5.4641    2.3700    0.0000 H       1  UNL1        0.0238
     32 H           4.8441    1.7500    0.0000 H       1  UNL1        0.0238
     33 H           6.3509    1.9046    0.0000 H       1  UNL1        0.0579
     34 H           7.7998    1.0829    0.0000 H       1  UNL1        0.0649
     35 H           2.3100    0.2869    0.0000 H       1  UNL1        0.0232
     36 H           1.4631    0.0600    0.0000 H       1  UNL1        0.0232
     37 H           1.6900   -0.7869    0.0000 H       1  UNL1        0.0232
     38 H           2.2460   -1.7500    0.0000 H       1  UNL1        0.0232
     39 H           2.8660   -2.3700    0.0000 H       1  UNL1        0.0232
     40 H           3.4860   -1.7500    0.0000 H       1  UNL1        0.0232
@<TRIPOS>BOND
     1     1    13    2
     2     2     3    1
     3     2     4    1
     4     2     8    1
     5     2    10    1
     6     3     6    1
     7     3    11    1
     8     3    12    1
     9     4     5    1
    10     4    17    1
    11     4    18    1
    12     5     7    1
    13     5     9    1
    14     5    19    1
    15     6     7    1
    16     6    20    1
    17     6    21    1
    18     7    22    1
    19     7    23    1
    20     8    13    1
    21     8    24    1
    22     8    25    1
    23     9    15    1
    24     9    16    1
    25     9    26    1
    26    10    27    1
    27    10    28    1
    28    10    29    1
    29    11    30    1
    30    11    31    1
    31    11    32    1
    32    12    14    2
    33    12    33    1
    34    13    14    1
    35    14    34    1
    36    15    35    1
    37    15    36    1
    38    15    37    1
    39    16    38    1
    40    16    39    1
    41    16    40    1
