@<TRIPOS>MOLECULE
IMPHY005878
 53 56 0 0 0
SMALL
GASTEIGER

@<TRIPOS>ATOM
      1 O           5.9150   -1.4269    0.0000 O.3     1  UNL1       -0.3309
      2 O           7.6751   -1.7056    0.0000 O.3     1  UNL1       -0.4532
      3 O           4.8272   -3.7747    0.0000 O.3     1  UNL1       -0.3863
      4 O           7.0028   -3.7747    0.0000 O.3     1  UNL1       -0.3829
      5 O           3.9470   -0.7275    0.0000 O.3     1  UNL1       -0.3869
      6 O           2.4608   -2.0658    0.0000 O.3     1  UNL1       -0.3924
      7 O           9.0420    0.5597    0.0000 O.2     1  UNL1       -0.4507
      8 O           6.1888   -0.3674    0.0000 O.2     1  UNL1       -0.2830
      9 O           5.6156    1.2848    0.0000 O.3     1  UNL1       -0.5058
     10 O           7.9741    3.9245    0.0000 O.3     1  UNL1       -0.5065
     11 O          12.2225   -1.1387    0.0000 O.3     1  UNL1       -0.5033
     12 O          11.8066   -3.0950    0.0000 O.3     1  UNL1       -0.5033
     13 C           5.1060   -2.0146    0.0000 C.3     1  UNL1        0.1191
     14 C           5.4150   -2.9657    0.0000 C.3     1  UNL1        0.1156
     15 C           6.4150   -2.9657    0.0000 C.3     1  UNL1        0.1454
     16 C           6.7240   -2.0146    0.0000 C.3     1  UNL1        0.2311
     17 C           4.1550   -1.7056    0.0000 C.3     1  UNL1        0.1069
     18 C           3.4118   -2.3748    0.0000 C.3     1  UNL1        0.0727
     19 C           7.8830   -0.7275    0.0000 C.ar    1  UNL1        0.2138
     20 C           8.8341   -0.4185    0.0000 C.ar    1  UNL1        0.1810
     21 C           7.1399   -0.0584    0.0000 C.ar    1  UNL1        0.2382
     22 C           7.3478    0.9198    0.0000 C.ar    1  UNL1        0.1092
     23 C           8.2988    1.2288    0.0000 C.ar    1  UNL1        0.1465
     24 C           9.5772   -1.0876    0.0000 C.ar    1  UNL1        0.0247
     25 C           6.5630    1.6048    0.0000 C.ar    1  UNL1        0.1348
     26 C           8.5311    2.2442    0.0000 C.ar    1  UNL1        0.0231
     27 C          10.5283   -0.7786    0.0000 C.ar    1  UNL1       -0.0057
     28 C           9.3693   -2.0658    0.0000 C.ar    1  UNL1       -0.0473
     29 C           6.7718    2.6253    0.0000 C.ar    1  UNL1        0.0223
     30 C           7.7624    2.9472    0.0000 C.ar    1  UNL1        0.1239
     31 C          11.2714   -1.4477    0.0000 C.ar    1  UNL1        0.1589
     32 C          10.1124   -2.7349    0.0000 C.ar    1  UNL1       -0.0159
     33 C          11.0635   -2.4259    0.0000 C.ar    1  UNL1        0.1583
     34 H           4.9730   -1.1751    0.0000 H       1  UNL1        0.0651
     35 H           5.6965   -3.5181    0.0000 H       1  UNL1        0.0648
     36 H           7.0274   -2.8687    0.0000 H       1  UNL1        0.0683
     37 H           7.1624   -2.4531    0.0000 H       1  UNL1        0.1084
     38 H           3.5653   -1.5140    0.0000 H       1  UNL1        0.0643
     39 H           3.1207   -2.9222    0.0000 H       1  UNL1        0.0584
     40 H           3.9004   -2.7565    0.0000 H       1  UNL1        0.0584
     41 H           5.0794   -4.3411    0.0000 H       1  UNL1        0.2100
     42 H           7.6194   -3.7099    0.0000 H       1  UNL1        0.2102
     43 H           3.3574   -0.5359    0.0000 H       1  UNL1        0.2100
     44 H           2.0000   -2.4806    0.0000 H       1  UNL1        0.2095
     45 H           9.1229    2.4290    0.0000 H       1  UNL1        0.0691
     46 H          10.6572   -0.1721    0.0000 H       1  UNL1        0.0662
     47 H           8.7796   -2.2573    0.0000 H       1  UNL1        0.0626
     48 H           6.3094    3.0384    0.0000 H       1  UNL1        0.0691
     49 H           9.9835   -3.3413    0.0000 H       1  UNL1        0.0655
     50 H           5.1501    1.6943    0.0000 H       1  UNL1        0.2922
     51 H           7.5149    4.3411    0.0000 H       1  UNL1        0.2921
     52 H          12.3514   -0.5322    0.0000 H       1  UNL1        0.2923
     53 H          12.3963   -2.9034    0.0000 H       1  UNL1        0.2923
@<TRIPOS>BOND
     1     1    13    1
     2     1    16    1
     3    16     2    1
     4     2    19    1
     5    14     3    1
     6     3    41    1
     7    15     4    1
     8     4    42    1
     9    17     5    1
    10     5    43    1
    11     6    18    1
    12     6    44    1
    13     7    20   ar
    14     7    23   ar
    15     8    21    2
    16     9    25    1
    17     9    50    1
    18    10    30    1
    19    10    51    1
    20    11    31    1
    21    11    52    1
    22    12    33    1
    23    12    53    1
    24    13    14    1
    25    13    17    1
    26    13    34    1
    27    14    15    1
    28    14    35    1
    29    15    16    1
    30    15    36    1
    31    16    37    1
    32    17    18    1
    33    17    38    1
    34    18    39    1
    35    18    40    1
    36    19    20   ar
    37    19    21   ar
    38    20    24    1
    39    21    22   ar
    40    22    23   ar
    41    22    25   ar
    42    23    26   ar
    43    24    27   ar
    44    24    28   ar
    45    25    29   ar
    46    26    30   ar
    47    26    45    1
    48    27    31   ar
    49    27    46    1
    50    28    32   ar
    51    28    47    1
    52    29    30   ar
    53    29    48    1
    54    31    33   ar
    55    32    33   ar
    56    32    49    1
