@<TRIPOS>MOLECULE
IMPHY010877
 51 54 0 0 0
SMALL
GASTEIGER

@<TRIPOS>ATOM
      1 O           5.1350   -0.5870    0.0000 O.3     1  UNL1       -0.3313
      2 O           6.8671   -0.5870    0.0000 O.3     1  UNL1       -0.4599
      3 O           5.1350   -3.5870    0.0000 O.3     1  UNL1       -0.3864
      4 O           3.4030   -2.5870    0.0000 O.3     1  UNL1       -0.3865
      5 O           6.8671   -2.5870    0.0000 O.3     1  UNL1       -0.3829
      6 O           2.5369   -1.0870    0.0000 O.3     1  UNL1       -0.3924
      7 O           8.6504    2.4272    0.0000 O.2     1  UNL1       -0.4544
      8 O           5.1208    2.4921    0.0000 O.3     1  UNL1       -0.5065
      9 O           8.6158   -0.5726    0.0000 O.2     1  UNL1       -0.2869
     10 O          12.9976    3.8770    0.0000 O.3     1  UNL1       -0.5068
     11 C           5.1350   -2.5870    0.0000 C.3     1  UNL1        0.1152
     12 C           4.2690   -2.0870    0.0000 C.3     1  UNL1        0.1120
     13 C           6.0010   -2.0870    0.0000 C.3     1  UNL1        0.1454
     14 C           4.2690   -1.0870    0.0000 C.3     1  UNL1        0.1140
     15 C           6.0010   -1.0870    0.0000 C.3     1  UNL1        0.2308
     16 C           3.4030   -0.5870    0.0000 C.3     1  UNL1        0.0731
     17 C           6.8671    0.4130    0.0000 C.ar    1  UNL1        0.1418
     18 C           7.7671    0.9373    0.0000 C.ar    1  UNL1        0.1058
     19 C           5.9670    0.9373    0.0000 C.ar    1  UNL1        0.0226
     20 C           7.7787    1.9372    0.0000 C.ar    1  UNL1        0.1462
     21 C           8.6273    0.4273    0.0000 C.ar    1  UNL1        0.1966
     22 C           5.9790    1.9788    0.0000 C.ar    1  UNL1        0.1239
     23 C           6.8910    2.4822    0.0000 C.ar    1  UNL1        0.0231
     24 C           9.5106    1.9172    0.0000 C.ar    1  UNL1        0.1392
     25 C           9.4991    0.9172    0.0000 C.ar    1  UNL1        0.0288
     26 C          10.3824    2.4071    0.0000 C.ar    1  UNL1        0.0176
     27 C          11.2426    1.8972    0.0000 C.ar    1  UNL1       -0.0476
     28 C          10.3939    3.4071    0.0000 C.ar    1  UNL1       -0.0476
     29 C          12.1143    2.3871    0.0000 C.ar    1  UNL1       -0.0195
     30 C          11.2657    3.8970    0.0000 C.ar    1  UNL1       -0.0195
     31 C          12.1259    3.3870    0.0000 C.ar    1  UNL1        0.1169
     32 H           5.6720   -2.8970    0.0000 H       1  UNL1        0.0648
     33 H           4.2690   -2.7070    0.0000 H       1  UNL1        0.0647
     34 H           6.5380   -1.7770    0.0000 H       1  UNL1        0.0683
     35 H           4.2690   -0.4670    0.0000 H       1  UNL1        0.0647
     36 H           6.0010   -0.4670    0.0000 H       1  UNL1        0.1084
     37 H           3.8015   -0.1121    0.0000 H       1  UNL1        0.0584
     38 H           3.0044   -0.1121    0.0000 H       1  UNL1        0.0584
     39 H           4.5981   -3.8970    0.0000 H       1  UNL1        0.2100
     40 H           3.4030   -3.2070    0.0000 H       1  UNL1        0.2100
     41 H           6.8671   -3.2070    0.0000 H       1  UNL1        0.2102
     42 H           2.0000   -0.7770    0.0000 H       1  UNL1        0.2095
     43 H           5.4277    0.6314    0.0000 H       1  UNL1        0.0691
     44 H           6.9053    3.1020    0.0000 H       1  UNL1        0.0691
     45 H          10.0324    0.6011    0.0000 H       1  UNL1        0.0693
     46 H           5.1304    3.1120    0.0000 H       1  UNL1        0.2921
     47 H          11.2354    1.2772    0.0000 H       1  UNL1        0.0626
     48 H           9.8606    3.7232    0.0000 H       1  UNL1        0.0626
     49 H          12.6476    2.0709    0.0000 H       1  UNL1        0.0654
     50 H          11.2729    4.5170    0.0000 H       1  UNL1        0.0654
     51 H          13.5309    3.5608    0.0000 H       1  UNL1        0.2921
@<TRIPOS>BOND
     1     1    14    1
     2     1    15    1
     3    15     2    1
     4     2    17    1
     5    11     3    1
     6     3    39    1
     7    12     4    1
     8     4    40    1
     9    13     5    1
    10     5    41    1
    11     6    16    1
    12     6    42    1
    13     7    20   ar
    14     7    24   ar
    15     8    22    1
    16     8    46    1
    17     9    21    2
    18    10    31    1
    19    10    51    1
    20    11    12    1
    21    11    13    1
    22    11    32    1
    23    12    14    1
    24    12    33    1
    25    13    15    1
    26    13    34    1
    27    14    16    1
    28    14    35    1
    29    15    36    1
    30    16    37    1
    31    16    38    1
    32    17    18   ar
    33    17    19   ar
    34    18    20   ar
    35    18    21   ar
    36    19    22   ar
    37    19    43    1
    38    20    23   ar
    39    21    25   ar
    40    22    23   ar
    41    23    44    1
    42    24    25   ar
    43    24    26    1
    44    25    45    1
    45    26    27   ar
    46    26    28   ar
    47    27    29   ar
    48    27    47    1
    49    28    30   ar
    50    28    48    1
    51    29    31   ar
    52    29    49    1
    53    30    31   ar
    54    30    50    1
