@<TRIPOS>MOLECULE
IMPHY000064
 46 50 0 0 0
SMALL
GASTEIGER

@<TRIPOS>ATOM
      1 O           7.6789    0.3163    0.0000 O.3     1  UNL1       -0.4646
      2 O           6.8129    1.8163    0.0000 O.2     1  UNL1       -0.2453
      3 N           3.3369   -0.9570    0.0000 N.3     1  UNL1       -0.2944
      4 N           4.9022    1.7542    0.0000 N.pl3   1  UNL1       -0.3164
      5 C           4.2620    0.3163    0.0000 C.3     1  UNL1        0.0563
      6 C           4.2620   -0.6564    0.0000 C.3     1  UNL1        0.0471
      7 C           3.3369    0.6169    0.0000 C.3     1  UNL1       -0.0235
      8 C           5.9469   -0.6564    0.0000 C.3     1  UNL1        0.0161
      9 C           5.1045    0.8027    0.0000 C.2     1  UNL1        0.0312
     10 C           5.1045   -1.1428    0.0000 C.2     1  UNL1       -0.0478
     11 C           2.7652   -0.1701    0.0000 C.3     1  UNL1        0.0007
     12 C           3.5392    0.9672    0.0000 C.ar    1  UNL1       -0.0127
     13 C           4.1101   -1.7048    0.0000 C.3     1  UNL1        0.0003
     14 C           5.3422   -1.7048    0.0000 C.3     1  UNL1       -0.0293
     15 C           5.9469    0.3163    0.0000 C.2     1  UNL1        0.0615
     16 C           3.9348    1.8558    0.0000 C.ar    1  UNL1        0.0353
     17 C           5.1045   -2.1428    0.0000 C.2     1  UNL1       -0.0858
     18 C           2.5718    0.8655    0.0000 C.ar    1  UNL1       -0.0559
     19 C           6.8129    0.8163    0.0000 C.2     1  UNL1        0.3370
     20 C           3.3630    2.6428    0.0000 C.ar    1  UNL1       -0.0403
     21 C           2.0000    1.6525    0.0000 C.ar    1  UNL1       -0.0614
     22 C           4.2384   -2.6428    0.0000 C.3     1  UNL1       -0.0465
     23 C           2.3956    2.5411    0.0000 C.ar    1  UNL1       -0.0600
     24 C           8.5450    0.8163    0.0000 C.3     1  UNL1        0.0820
     25 H           3.7928   -1.3652    0.0000 H       1  UNL1        0.0522
     26 H           3.5891    1.1833    0.0000 H       1  UNL1        0.0290
     27 H           2.8000    0.9269    0.0000 H       1  UNL1        0.0290
     28 H           6.7680   -0.8762    0.0000 H       1  UNL1        0.0398
     29 H           2.3044    0.2448    0.0000 H       1  UNL1        0.0427
     30 H           2.3044   -0.5849    0.0000 H       1  UNL1        0.0427
     31 H           3.5767   -2.0208    0.0000 H       1  UNL1        0.0427
     32 H           4.2739   -2.3028    0.0000 H       1  UNL1        0.0427
     33 H           5.2347   -2.3154    0.0000 H       1  UNL1        0.0286
     34 H           5.9249   -1.9167    0.0000 H       1  UNL1        0.0286
     35 H           5.2666    2.2558    0.0000 H       1  UNL1        0.1519
     36 H           5.6414   -2.4528    0.0000 H       1  UNL1        0.0570
     37 H           2.3196    0.2991    0.0000 H       1  UNL1        0.0621
     38 H           3.6152    3.2092    0.0000 H       1  UNL1        0.0636
     39 H           1.3834    1.5877    0.0000 H       1  UNL1        0.0618
     40 H           3.9284   -2.1059    0.0000 H       1  UNL1        0.0272
     41 H           3.7015   -2.9528    0.0000 H       1  UNL1        0.0272
     42 H           4.5484   -3.1797    0.0000 H       1  UNL1        0.0272
     43 H           2.0312    3.0427    0.0000 H       1  UNL1        0.0618
     44 H           8.8550    0.2794    0.0000 H       1  UNL1        0.0661
     45 H           9.0819    1.1263    0.0000 H       1  UNL1        0.0661
     46 H           8.2350    1.3532    0.0000 H       1  UNL1        0.0661
@<TRIPOS>BOND
     1     1    19    1
     2     1    24    1
     3     2    19    2
     4     3     6    1
     5     3    11    1
     6     3    13    1
     7     4     9    1
     8     4    16    1
     9     4    35    1
    10     5     6    1
    11     5     7    1
    12     5     9    1
    13     5    12    1
    14     6    10    1
    15     6    25    1
    16     7    11    1
    17     7    26    1
    18     7    27    1
    19     8    10    1
    20     8    14    1
    21     8    15    1
    22     8    28    1
    23     9    15    2
    24    10    17    2
    25    11    29    1
    26    11    30    1
    27    12    16   ar
    28    12    18   ar
    29    13    14    1
    30    13    31    1
    31    13    32    1
    32    14    33    1
    33    14    34    1
    34    15    19    1
    35    16    20   ar
    36    17    22    1
    37    17    36    1
    38    18    21   ar
    39    18    37    1
    40    20    23   ar
    41    20    38    1
    42    21    23   ar
    43    21    39    1
    44    22    40    1
    45    22    41    1
    46    22    42    1
    47    23    43    1
    48    24    44    1
    49    24    45    1
    50    24    46    1
