@<TRIPOS>MOLECULE
IMPHY002233
 81 85 0 0 0
SMALL
GASTEIGER

@<TRIPOS>ATOM
      1 O           2.5357   -2.6236    0.0000 O.3     1  UNL1       -0.3875
      2 C           7.9288    0.4288    0.0000 C.3     1  UNL1       -0.0228
      3 C           7.9288   -0.5712    0.0000 C.3     1  UNL1       -0.0230
      4 C           8.8228    0.9634    0.0000 C.3     1  UNL1       -0.0267
      5 C           7.0628   -1.0712    0.0000 C.3     1  UNL1       -0.0294
      6 C           6.1968   -0.5712    0.0000 C.3     1  UNL1       -0.0251
      7 C           9.7288    0.4496    0.0000 C.3     1  UNL1       -0.0284
      8 C           7.0628    0.9288    0.0000 C.3     1  UNL1       -0.0463
      9 C           8.8228   -1.1059    0.0000 C.3     1  UNL1       -0.0463
     10 C           5.2868   -1.0781    0.0000 C.3     1  UNL1       -0.0261
     11 C           9.0329    1.9774    0.0000 C.3     1  UNL1       -0.0348
     12 C           6.1968    0.4288    0.0000 C.3     1  UNL1       -0.0466
     13 C           9.7288   -0.5920    0.0000 C.3     1  UNL1       -0.0468
     14 C           7.0789   -2.1127    0.0000 C.3     1  UNL1       -0.0484
     15 C           5.2787   -2.1197    0.0000 C.3     1  UNL1       -0.0056
     16 C          10.4911    1.1504    0.0000 C.3     1  UNL1       -0.0471
     17 C          10.0619    2.0926    0.0000 C.3     1  UNL1       -0.0492
     18 C           7.9288    1.4288    0.0000 C.3     1  UNL1       -0.0588
     19 C           7.9288   -1.5712    0.0000 C.3     1  UNL1       -0.0588
     20 C           6.1808   -2.6405    0.0000 C.3     1  UNL1       -0.0433
     21 C           5.3307   -0.0712    0.0000 C.3     1  UNL1       -0.0590
     22 C          10.5987   -0.0437    0.0000 C.3     1  UNL1       -0.0593
     23 C           4.3599   -0.5140    0.0000 C.3     1  UNL1       -0.0463
     24 C           8.3593    2.7165    0.0000 C.3     1  UNL1       -0.0436
     25 C           4.3433   -2.6694    0.0000 C.2     1  UNL1       -0.0424
     26 C           5.2710   -3.1196    0.0000 C.3     1  UNL1       -0.0555
     27 C           3.4120   -1.0419    0.0000 C.3     1  UNL1       -0.0227
     28 C           3.4037   -2.1269    0.0000 C.3     1  UNL1        0.0765
     29 C           8.6626    3.6694    0.0000 C.3     1  UNL1       -0.0624
     30 C           7.3824    2.5027    0.0000 C.3     1  UNL1       -0.0624
     31 C           4.3472   -3.6694    0.0000 C.2     1  UNL1       -0.0965
     32 H           9.5970    1.3141    0.0000 H       1  UNL1        0.0314
     33 H           7.8022   -1.4905    0.0000 H       1  UNL1        0.0312
     34 H           7.4613    1.4037    0.0000 H       1  UNL1        0.0271
     35 H           6.6643    1.4037    0.0000 H       1  UNL1        0.0271
     36 H           8.4182   -1.5757    0.0000 H       1  UNL1        0.0271
     37 H           9.2164   -1.5849    0.0000 H       1  UNL1        0.0271
     38 H           6.0179   -1.5116    0.0000 H       1  UNL1        0.0314
     39 H           9.2513    2.5576    0.0000 H       1  UNL1        0.0306
     40 H           5.9847    1.0114    0.0000 H       1  UNL1        0.0271
     41 H           5.5862    0.3211    0.0000 H       1  UNL1        0.0271
     42 H           9.9379   -1.1757    0.0000 H       1  UNL1        0.0271
     43 H          10.3397   -0.4859    0.0000 H       1  UNL1        0.0271
     44 H           7.2969   -2.6931    0.0000 H       1  UNL1        0.0269
     45 H           7.6880   -1.9972    0.0000 H       1  UNL1        0.0269
     46 H          10.8604    0.6523    0.0000 H       1  UNL1        0.0271
     47 H          11.0252    1.4652    0.0000 H       1  UNL1        0.0271
     48 H          10.6500    2.2890    0.0000 H       1  UNL1        0.0268
     49 H           9.9285    2.6981    0.0000 H       1  UNL1        0.0268
     50 H           8.5488    1.4288    0.0000 H       1  UNL1        0.0235
     51 H           7.9288    2.0488    0.0000 H       1  UNL1        0.0235
     52 H           7.3088    1.4288    0.0000 H       1  UNL1        0.0235
     53 H           7.3088   -1.5712    0.0000 H       1  UNL1        0.0235
     54 H           7.9288   -2.1912    0.0000 H       1  UNL1        0.0235
     55 H           8.5488   -1.5712    0.0000 H       1  UNL1        0.0235
     56 H           5.7835   -3.1164    0.0000 H       1  UNL1        0.0274
     57 H           6.5818   -3.1134    0.0000 H       1  UNL1        0.0274
     58 H           5.6407    0.4657    0.0000 H       1  UNL1        0.0235
     59 H           4.7938    0.2388    0.0000 H       1  UNL1        0.0235
     60 H           5.0207   -0.6082    0.0000 H       1  UNL1        0.0235
     61 H          10.2928   -0.5830    0.0000 H       1  UNL1        0.0235
     62 H          11.1380   -0.3496    0.0000 H       1  UNL1        0.0235
     63 H          10.9045    0.4956    0.0000 H       1  UNL1        0.0235
     64 H           4.7681   -0.0473    0.0000 H       1  UNL1        0.0269
     65 H           3.9700   -0.0319    0.0000 H       1  UNL1        0.0269
     66 H           8.1712    2.1257    0.0000 H       1  UNL1        0.0298
     67 H           4.6510   -3.1149    0.0000 H       1  UNL1        0.0238
     68 H           5.2662   -3.7396    0.0000 H       1  UNL1        0.0238
     69 H           5.8910   -3.1244    0.0000 H       1  UNL1        0.0238
     70 H           3.2075   -0.4566    0.0000 H       1  UNL1        0.0293
     71 H           2.8004   -1.1433    0.0000 H       1  UNL1        0.0293
     72 H           3.4025   -2.7469    0.0000 H       1  UNL1        0.0640
     73 H           7.2499    3.1084    0.0000 H       1  UNL1        0.0232
     74 H           6.7768    2.3702    0.0000 H       1  UNL1        0.0232
     75 H           9.2534    3.4813    0.0000 H       1  UNL1        0.0232
     76 H           7.5150    1.8971    0.0000 H       1  UNL1        0.0232
     77 H           8.8507    4.2602    0.0000 H       1  UNL1        0.0232
     78 H           8.0718    3.8574    0.0000 H       1  UNL1        0.0232
     79 H           3.8114   -3.9814    0.0000 H       1  UNL1        0.0535
     80 H           4.8853   -3.9773    0.0000 H       1  UNL1        0.0535
     81 H           2.0000   -2.3115    0.0000 H       1  UNL1        0.2102
@<TRIPOS>BOND
     1    28     1    1
     2     1    81    1
     3     2     3    1
     4     2     4    1
     5     2     8    1
     6     2    18    1
     7     3     5    1
     8     3     9    1
     9     3    19    1
    10     4     7    1
    11     4    11    1
    12     4    32    1
    13     5     6    1
    14     5    14    1
    15     5    33    1
    16     6    10    1
    17     6    12    1
    18     6    21    1
    19     7    13    1
    20     7    16    1
    21     7    22    1
    22     8    12    1
    23     8    34    1
    24     8    35    1
    25     9    13    1
    26     9    36    1
    27     9    37    1
    28    10    15    1
    29    10    23    1
    30    10    38    1
    31    11    17    1
    32    11    24    1
    33    11    39    1
    34    12    40    1
    35    12    41    1
    36    13    42    1
    37    13    43    1
    38    14    20    1
    39    14    44    1
    40    14    45    1
    41    15    20    1
    42    15    25    1
    43    15    26    1
    44    16    17    1
    45    16    46    1
    46    16    47    1
    47    17    48    1
    48    17    49    1
    49    18    50    1
    50    18    51    1
    51    18    52    1
    52    19    53    1
    53    19    54    1
    54    19    55    1
    55    20    56    1
    56    20    57    1
    57    21    58    1
    58    21    59    1
    59    21    60    1
    60    22    61    1
    61    22    62    1
    62    22    63    1
    63    23    27    1
    64    23    64    1
    65    23    65    1
    66    24    29    1
    67    24    30    1
    68    24    66    1
    69    25    28    1
    70    25    31    2
    71    26    67    1
    72    26    68    1
    73    26    69    1
    74    27    28    1
    75    27    70    1
    76    27    71    1
    77    28    72    1
    78    29    75    1
    79    29    77    1
    80    29    78    1
    81    30    73    1
    82    30    74    1
    83    30    76    1
    84    31    79    1
    85    31    80    1
