@<TRIPOS>MOLECULE
IMPHY012172
 50 49 0 0 0
SMALL
GASTEIGER

@<TRIPOS>ATOM
      1 O          14.1244   -0.2500    0.0000 O.3     1  UNL1       -0.4679
      2 O          13.2583    1.2500    0.0000 O.2     1  UNL1       -0.2509
      3 C           4.5981    0.2500    0.0000 C.3     1  UNL1       -0.0505
      4 C           3.7320   -0.2500    0.0000 C.3     1  UNL1       -0.0441
      5 C           5.4641   -0.2500    0.0000 C.3     1  UNL1       -0.0528
      6 C           6.3301    0.2500    0.0000 C.3     1  UNL1       -0.0530
      7 C           7.1962   -0.2500    0.0000 C.3     1  UNL1       -0.0531
      8 C           8.0622    0.2500    0.0000 C.3     1  UNL1       -0.0531
      9 C           8.9282   -0.2500    0.0000 C.3     1  UNL1       -0.0531
     10 C           9.7942    0.2500    0.0000 C.3     1  UNL1       -0.0530
     11 C           2.8660    0.2500    0.0000 C.3     1  UNL1       -0.0533
     12 C          10.6603   -0.2500    0.0000 C.3     1  UNL1       -0.0526
     13 C           3.7320   -1.2500    0.0000 C.3     1  UNL1       -0.0624
     14 C          11.5263    0.2500    0.0000 C.3     1  UNL1       -0.0430
     15 C           2.0000   -0.2500    0.0000 C.3     1  UNL1       -0.0650
     16 C          12.3923   -0.2500    0.0000 C.3     1  UNL1        0.0449
     17 C          13.2583    0.2500    0.0000 C.2     1  UNL1        0.3068
     18 C          14.9904    0.2500    0.0000 C.3     1  UNL1        0.0817
     19 H           4.9966    0.7249    0.0000 H       1  UNL1        0.0268
     20 H           4.1996    0.7249    0.0000 H       1  UNL1        0.0268
     21 H           4.2690   -0.5600    0.0000 H       1  UNL1        0.0298
     22 H           5.0656   -0.7249    0.0000 H       1  UNL1        0.0265
     23 H           5.8626   -0.7249    0.0000 H       1  UNL1        0.0265
     24 H           6.7287    0.7249    0.0000 H       1  UNL1        0.0265
     25 H           5.9316    0.7249    0.0000 H       1  UNL1        0.0265
     26 H           6.7976   -0.7249    0.0000 H       1  UNL1        0.0265
     27 H           7.5947   -0.7249    0.0000 H       1  UNL1        0.0265
     28 H           8.4607    0.7249    0.0000 H       1  UNL1        0.0265
     29 H           7.6636    0.7249    0.0000 H       1  UNL1        0.0265
     30 H           8.5297   -0.7249    0.0000 H       1  UNL1        0.0265
     31 H           9.3267   -0.7249    0.0000 H       1  UNL1        0.0265
     32 H          10.1928    0.7249    0.0000 H       1  UNL1        0.0265
     33 H           9.3957    0.7249    0.0000 H       1  UNL1        0.0265
     34 H           3.2646    0.7249    0.0000 H       1  UNL1        0.0265
     35 H           2.4675    0.7249    0.0000 H       1  UNL1        0.0265
     36 H          10.2617   -0.7249    0.0000 H       1  UNL1        0.0265
     37 H          11.0588   -0.7249    0.0000 H       1  UNL1        0.0265
     38 H           3.1120   -1.2500    0.0000 H       1  UNL1        0.0232
     39 H           3.7320   -1.8700    0.0000 H       1  UNL1        0.0232
     40 H           4.3520   -1.2500    0.0000 H       1  UNL1        0.0232
     41 H          11.9248    0.7249    0.0000 H       1  UNL1        0.0270
     42 H          11.1278    0.7249    0.0000 H       1  UNL1        0.0270
     43 H           1.6900    0.2869    0.0000 H       1  UNL1        0.0230
     44 H           1.4631   -0.5600    0.0000 H       1  UNL1        0.0230
     45 H           2.3100   -0.7869    0.0000 H       1  UNL1        0.0230
     46 H          11.9938   -0.7249    0.0000 H       1  UNL1        0.0377
     47 H          12.7908   -0.7249    0.0000 H       1  UNL1        0.0377
     48 H          15.3004   -0.2869    0.0000 H       1  UNL1        0.0661
     49 H          15.5273    0.5600    0.0000 H       1  UNL1        0.0661
     50 H          14.6804    0.7869    0.0000 H       1  UNL1        0.0661
@<TRIPOS>BOND
     1     1    17    1
     2     1    18    1
     3     2    17    2
     4     3     4    1
     5     3     5    1
     6     3    19    1
     7     3    20    1
     8     4    11    1
     9     4    13    1
    10     4    21    1
    11     5     6    1
    12     5    22    1
    13     5    23    1
    14     6     7    1
    15     6    24    1
    16     6    25    1
    17     7     8    1
    18     7    26    1
    19     7    27    1
    20     8     9    1
    21     8    28    1
    22     8    29    1
    23     9    10    1
    24     9    30    1
    25     9    31    1
    26    10    12    1
    27    10    32    1
    28    10    33    1
    29    11    15    1
    30    11    34    1
    31    11    35    1
    32    12    14    1
    33    12    36    1
    34    12    37    1
    35    13    38    1
    36    13    39    1
    37    13    40    1
    38    14    16    1
    39    14    41    1
    40    14    42    1
    41    15    43    1
    42    15    44    1
    43    15    45    1
    44    16    17    1
    45    16    46    1
    46    16    47    1
    47    18    48    1
    48    18    49    1
    49    18    50    1
