@<TRIPOS>MOLECULE
IMPHY005221
 51 57 0 0 0
SMALL
GASTEIGER

@<TRIPOS>ATOM
      1 O           6.8753    1.4398    0.0000 O.3     1  UNL1       -0.3611
      2 O           6.8022   -2.2818    0.0000 O.3     1  UNL1       -0.3717
      3 O           3.5351   -2.3197    0.0000 O.2     1  UNL1       -0.2752
      4 N           5.8097    1.8568    0.0000 N.3     1  UNL1       -0.2703
      5 N           4.4011   -0.8955    0.0000 N.am    1  UNL1       -0.2666
      6 C           5.2014    0.4908    0.0000 C.3     1  UNL1        0.0605
      7 C           6.0018    0.9529    0.0000 C.3     1  UNL1        0.1350
      8 C           5.2014   -0.4334    0.0000 C.3     1  UNL1        0.0504
      9 C           6.0018   -0.8955    0.0000 C.3     1  UNL1        0.0124
     10 C           6.8022   -0.4334    0.0000 C.3     1  UNL1       -0.0078
     11 C           6.8022    0.4908    0.0000 C.3     1  UNL1       -0.0020
     12 C           4.5146    1.1092    0.0000 C.3     1  UNL1       -0.0247
     13 C           3.6007    0.4908    0.0000 C.ar    1  UNL1       -0.0139
     14 C           4.8906    1.9534    0.0000 C.3     1  UNL1        0.0028
     15 C           6.0018   -1.8197    0.0000 C.3     1  UNL1        0.0724
     16 C           7.6625   -0.7710    0.0000 C.2     1  UNL1       -0.0537
     17 C           7.6266    1.0556    0.0000 C.3     1  UNL1        0.0229
     18 C           3.6007   -0.4334    0.0000 C.ar    1  UNL1        0.0405
     19 C           5.2014   -2.2818    0.0000 C.3     1  UNL1        0.0511
     20 C           4.4011   -1.8197    0.0000 C.2     1  UNL1        0.2225
     21 C           7.9758   -1.4089    0.0000 C.2     1  UNL1       -0.0579
     22 C           2.8004    0.9529    0.0000 C.ar    1  UNL1       -0.0561
     23 C           7.5239   -2.2715    0.0000 C.3     1  UNL1        0.0665
     24 C           2.8004   -0.8955    0.0000 C.ar    1  UNL1       -0.0400
     25 C           6.8903    2.4396    0.0000 C.3     1  UNL1        0.0388
     26 C           2.0000    0.4908    0.0000 C.ar    1  UNL1       -0.0614
     27 C           2.0000   -0.4334    0.0000 C.ar    1  UNL1       -0.0600
     28 H           5.2040   -1.2834    0.0000 H       1  UNL1        0.0518
     29 H           6.7379   -1.3205    0.0000 H       1  UNL1        0.0350
     30 H           7.5045    0.0454    0.0000 H       1  UNL1        0.0351
     31 H           7.4128    0.3831    0.0000 H       1  UNL1        0.0313
     32 H           7.0142    1.0734    0.0000 H       1  UNL1        0.0313
     33 H           3.9777    1.4192    0.0000 H       1  UNL1        0.0288
     34 H           4.1502    0.6076    0.0000 H       1  UNL1        0.0288
     35 H           5.0194    2.5599    0.0000 H       1  UNL1        0.0428
     36 H           4.3009    2.1450    0.0000 H       1  UNL1        0.0428
     37 H           5.9945   -2.6696    0.0000 H       1  UNL1        0.0604
     38 H           8.2418    0.9780    0.0000 H       1  UNL1        0.0473
     39 H           7.7922    1.6530    0.0000 H       1  UNL1        0.0473
     40 H           4.8029   -2.7567    0.0000 H       1  UNL1        0.0384
     41 H           5.6000   -2.7567    0.0000 H       1  UNL1        0.0384
     42 H           8.5957   -1.4170    0.0000 H       1  UNL1        0.0595
     43 H           2.8004    1.5729    0.0000 H       1  UNL1        0.0621
     44 H           7.4305   -2.8844    0.0000 H       1  UNL1        0.0604
     45 H           8.1131   -2.4647    0.0000 H       1  UNL1        0.0604
     46 H           2.8004   -1.5155    0.0000 H       1  UNL1        0.0636
     47 H           7.5103    2.4303    0.0000 H       1  UNL1        0.0524
     48 H           6.8997    3.0596    0.0000 H       1  UNL1        0.0524
     49 H           6.2704    2.4490    0.0000 H       1  UNL1        0.0524
     50 H           1.4631    0.8008    0.0000 H       1  UNL1        0.0618
     51 H           1.4631   -0.7434    0.0000 H       1  UNL1        0.0618
@<TRIPOS>BOND
     1     7     1    1
     2     1    25    1
     3     2    15    1
     4     2    23    1
     5     3    20    2
     6     4     7    1
     7     4    14    1
     8     4    17    1
     9     5     8    1
    10     5    18    1
    11     5    20   am
    12     6     7    1
    13     6     8    1
    14     6    12    1
    15     6    13    1
    16     7    11    1
    17     8     9    1
    18     8    28    1
    19     9    10    1
    20     9    15    1
    21     9    29    1
    22    10    11    1
    23    10    16    1
    24    10    30    1
    25    11    31    1
    26    11    32    1
    27    12    14    1
    28    12    33    1
    29    12    34    1
    30    13    18   ar
    31    13    22   ar
    32    14    35    1
    33    14    36    1
    34    15    19    1
    35    15    37    1
    36    16    17    1
    37    16    21    2
    38    17    38    1
    39    17    39    1
    40    18    24   ar
    41    19    20    1
    42    19    40    1
    43    19    41    1
    44    21    23    1
    45    21    42    1
    46    22    26   ar
    47    22    43    1
    48    23    44    1
    49    23    45    1
    50    24    27   ar
    51    24    46    1
    52    25    47    1
    53    25    48    1
    54    25    49    1
    55    26    27   ar
    56    26    50    1
    57    27    51    1
