@<TRIPOS>MOLECULE
IMPHY010171
 92 98 0 0 0
SMALL
GASTEIGER

@<TRIPOS>ATOM
      1 O           6.7390   -1.9617    0.0000 O.3     1  UNL1       -0.3788
      2 O           4.9163    1.8001    0.0000 O.3     1  UNL1       -0.3791
      3 O           8.6327    1.5486    0.0000 O.3     1  UNL1       -0.4542
      4 O           7.0415    3.1120    0.0000 O.3     1  UNL1       -0.3820
      5 O           3.1654   -0.4700    0.0000 O.3     1  UNL1       -0.3910
      6 O           9.0340    2.2581    0.0000 O.3     1  UNL1       -0.3728
      7 O           4.0503   -2.4350    0.0000 O.3     1  UNL1       -0.3823
      8 O           8.7880   -0.1765    0.0000 O.2     1  UNL1       -0.2449
      9 O          12.3515   -0.7253    0.0000 O.3     1  UNL1       -0.4914
     10 O          13.1922    1.0894    0.0000 O.3     1  UNL1       -0.4915
     11 N           3.7210   -0.0289    0.0000 N.3     1  UNL1       -0.2977
     12 C           5.6676    0.3663    0.0000 C.3     1  UNL1        0.0226
     13 C           5.6676   -0.5013    0.0000 C.3     1  UNL1        0.0069
     14 C           4.6656    0.2603    0.0000 C.3     1  UNL1        0.0279
     15 C           6.3459    0.9073    0.0000 C.3     1  UNL1       -0.0184
     16 C           7.1918   -0.8491    0.0000 C.3     1  UNL1        0.0233
     17 C           4.9163   -0.9350    0.0000 C.3     1  UNL1        0.0386
     18 C           6.3459   -1.0422    0.0000 C.3     1  UNL1        0.0704
     19 C           7.1918    0.7142    0.0000 C.3     1  UNL1        0.0241
     20 C           4.9163    0.8001    0.0000 C.3     1  UNL1        0.0684
     21 C           7.5682   -0.0675    0.0000 C.2     1  UNL1       -0.0570
     22 C           6.2682    1.7713    0.0000 C.3     1  UNL1       -0.0136
     23 C           7.0659    2.1123    0.0000 C.3     1  UNL1        0.1330
     24 C           3.7210   -0.7808    0.0000 C.3     1  UNL1        0.0097
     25 C           7.6367    1.4590    0.0000 C.3     1  UNL1        0.1413
     26 C           4.1649   -0.5013    0.0000 C.3     1  UNL1        0.0668
     27 C           4.1649    0.3663    0.0000 C.3     1  UNL1        0.0008
     28 C           8.2131    1.6870    0.0000 C.3     1  UNL1        0.1088
     29 C           4.9163   -1.9350    0.0000 C.3     1  UNL1        0.0568
     30 C           8.2131    0.2025    0.0000 C.2     1  UNL1       -0.0528
     31 C           2.9170    0.5658    0.0000 C.3     1  UNL1       -0.0036
     32 C           2.0000    0.1669    0.0000 C.3     1  UNL1       -0.0523
     33 C           6.1391   -2.7618    0.0000 C.3     1  UNL1        0.0368
     34 C           4.0502    2.3001    0.0000 C.3     1  UNL1        0.0368
     35 C           9.2083    0.7309    0.0000 C.2     1  UNL1        0.3397
     36 C           8.9498    3.2545    0.0000 C.3     1  UNL1        0.0373
     37 C           4.0503   -3.4350    0.0000 C.3     1  UNL1        0.0365
     38 C          10.2043    0.8205    0.0000 C.ar    1  UNL1        0.0627
     39 C          10.7799    0.0028    0.0000 C.ar    1  UNL1       -0.0023
     40 C          10.6247    1.7279    0.0000 C.ar    1  UNL1       -0.0441
     41 C          11.7759    0.0924    0.0000 C.ar    1  UNL1        0.1623
     42 C          11.6206    1.8175    0.0000 C.ar    1  UNL1       -0.0155
     43 C          12.1962    0.9998    0.0000 C.ar    1  UNL1        0.1615
     44 C          13.3475   -0.6356    0.0000 C.3     1  UNL1        0.0790
     45 C          13.6126    1.9968    0.0000 C.3     1  UNL1        0.0790
     46 H           5.6041   -1.3489    0.0000 H       1  UNL1        0.0340
     47 H           4.3537    1.0510    0.0000 H       1  UNL1        0.0476
     48 H           5.5643    1.2413    0.0000 H       1  UNL1        0.0315
     49 H           7.7217   -1.5137    0.0000 H       1  UNL1        0.0386
     50 H           6.1455   -1.6289    0.0000 H       1  UNL1        0.0605
     51 H           8.0409    0.6761    0.0000 H       1  UNL1        0.0385
     52 H           5.4532    1.1101    0.0000 H       1  UNL1        0.0603
     53 H           6.0854    2.3638    0.0000 H       1  UNL1        0.0298
     54 H           5.6598    1.6515    0.0000 H       1  UNL1        0.0298
     55 H           3.1015   -0.7543    0.0000 H       1  UNL1        0.0434
     56 H           3.6680   -1.3985    0.0000 H       1  UNL1        0.0434
     57 H           7.8676    2.0344    0.0000 H       1  UNL1        0.0770
     58 H           3.9952   -1.0976    0.0000 H       1  UNL1        0.0601
     59 H           3.9529    0.9489    0.0000 H       1  UNL1        0.0315
     60 H           3.5544    0.2587    0.0000 H       1  UNL1        0.0315
     61 H           8.1349    2.3020    0.0000 H       1  UNL1        0.0670
     62 H           5.1283   -2.5176    0.0000 H       1  UNL1        0.0566
     63 H           5.5269   -1.8274    0.0000 H       1  UNL1        0.0566
     64 H           8.7292   -0.1410    0.0000 H       1  UNL1        0.0598
     65 H           3.3666    0.9926    0.0000 H       1  UNL1        0.0424
     66 H           2.5747    1.0827    0.0000 H       1  UNL1        0.0424
     67 H           7.5707    3.4350    0.0000 H       1  UNL1        0.2104
     68 H           2.8388   -0.9970    0.0000 H       1  UNL1        0.2098
     69 H           1.7527    0.7354    0.0000 H       1  UNL1        0.0242
     70 H           1.4315   -0.0805    0.0000 H       1  UNL1        0.0242
     71 H           2.2473   -0.4017    0.0000 H       1  UNL1        0.0242
     72 H           5.6430   -2.3899    0.0000 H       1  UNL1        0.0524
     73 H           5.7672   -3.2579    0.0000 H       1  UNL1        0.0524
     74 H           6.6352   -3.1337    0.0000 H       1  UNL1        0.0524
     75 H           4.3602    2.8370    0.0000 H       1  UNL1        0.0524
     76 H           3.5133    2.6101    0.0000 H       1  UNL1        0.0524
     77 H           3.7402    1.7632    0.0000 H       1  UNL1        0.0524
     78 H           9.5676    3.3067    0.0000 H       1  UNL1        0.0524
     79 H           8.8976    3.8723    0.0000 H       1  UNL1        0.0524
     80 H           8.3320    3.2024    0.0000 H       1  UNL1        0.0524
     81 H           3.4303   -3.4350    0.0000 H       1  UNL1        0.0523
     82 H           4.0503   -4.0550    0.0000 H       1  UNL1        0.0523
     83 H           4.6703   -3.4350    0.0000 H       1  UNL1        0.0523
     84 H          10.5193   -0.5598    0.0000 H       1  UNL1        0.0663
     85 H          10.2678    2.2349    0.0000 H       1  UNL1        0.0627
     86 H          11.8813    2.3801    0.0000 H       1  UNL1        0.0655
     87 H          13.4031   -1.2531    0.0000 H       1  UNL1        0.0660
     88 H          13.9650   -0.5801    0.0000 H       1  UNL1        0.0660
     89 H          13.2919   -0.0181    0.0000 H       1  UNL1        0.0660
     90 H          14.1751    1.7362    0.0000 H       1  UNL1        0.0660
     91 H          13.8732    2.5594    0.0000 H       1  UNL1        0.0660
     92 H          13.0500    2.2574    0.0000 H       1  UNL1        0.0660
@<TRIPOS>BOND
     1    18     1    1
     2     1    33    1
     3    20     2    1
     4     2    34    1
     5    25     3    1
     6     3    35    1
     7    23     4    1
     8     4    67    1
     9    26     5    1
    10     5    68    1
    11    28     6    1
    12     6    36    1
    13     7    29    1
    14     7    37    1
    15     8    35    2
    16     9    41    1
    17     9    44    1
    18    10    43    1
    19    10    45    1
    20    11    14    1
    21    11    24    1
    22    11    31    1
    23    12    13    1
    24    12    14    1
    25    12    15    1
    26    12    20    1
    27    13    17    1
    28    13    18    1
    29    13    46    1
    30    14    16    1
    31    14    47    1
    32    15    19    1
    33    15    22    1
    34    15    48    1
    35    16    18    1
    36    16    21    1
    37    16    49    1
    38    17    24    1
    39    17    26    1
    40    17    29    1
    41    18    50    1
    42    19    21    1
    43    19    25    1
    44    19    51    1
    45    20    27    1
    46    20    52    1
    47    21    30    2
    48    22    23    1
    49    22    53    1
    50    22    54    1
    51    23    25    1
    52    23    28    1
    53    24    55    1
    54    24    56    1
    55    25    57    1
    56    26    27    1
    57    26    58    1
    58    27    59    1
    59    27    60    1
    60    28    30    1
    61    28    61    1
    62    29    62    1
    63    29    63    1
    64    30    64    1
    65    31    32    1
    66    31    65    1
    67    31    66    1
    68    32    69    1
    69    32    70    1
    70    32    71    1
    71    33    72    1
    72    33    73    1
    73    33    74    1
    74    34    75    1
    75    34    76    1
    76    34    77    1
    77    35    38    1
    78    36    78    1
    79    36    79    1
    80    36    80    1
    81    37    81    1
    82    37    82    1
    83    37    83    1
    84    38    39   ar
    85    38    40   ar
    86    39    41   ar
    87    39    84    1
    88    40    42   ar
    89    40    85    1
    90    41    43   ar
    91    42    43   ar
    92    42    86    1
    93    44    87    1
    94    44    88    1
    95    44    89    1
    96    45    90    1
    97    45    91    1
    98    45    92    1
