@<TRIPOS>MOLECULE
IMPHY009672
 41 43 0 0 0
SMALL
GASTEIGER

@<TRIPOS>ATOM
      1 O           2.5369   -0.6550    0.0000 O.3     1  UNL1       -0.3899
      2 O           6.0290    0.3103    0.0000 O.2     1  UNL1       -0.4592
      3 O           2.5369    0.3450    0.0000 O.3     1  UNL1       -0.5062
      4 O           4.2690    3.3450    0.0000 O.3     1  UNL1       -0.5058
      5 O           6.0174    3.3796    0.0000 O.2     1  UNL1       -0.2869
      6 N           4.2690   -2.6550    0.0000 N.3     1  UNL1       -0.3029
      7 C           4.2690   -0.6550    0.0000 C.3     1  UNL1        0.0195
      8 C           3.4030   -1.1550    0.0000 C.3     1  UNL1        0.0749
      9 C           5.1350   -1.1550    0.0000 C.3     1  UNL1       -0.0307
     10 C           3.4030   -2.1550    0.0000 C.3     1  UNL1        0.0252
     11 C           5.1350   -2.1550    0.0000 C.3     1  UNL1       -0.0007
     12 C           4.2690    0.3450    0.0000 C.ar    1  UNL1        0.0427
     13 C           5.1350    0.8450    0.0000 C.ar    1  UNL1        0.1492
     14 C           4.2690   -3.6550    0.0000 C.3     1  UNL1       -0.0127
     15 C           3.4030    0.8450    0.0000 C.ar    1  UNL1        0.1274
     16 C           5.1350    1.8450    0.0000 C.ar    1  UNL1        0.1057
     17 C           3.4030    1.8450    0.0000 C.ar    1  UNL1        0.0225
     18 C           4.2690    2.3450    0.0000 C.ar    1  UNL1        0.1347
     19 C           6.0290    2.3797    0.0000 C.ar    1  UNL1        0.1963
     20 C           6.9350    0.8242    0.0000 C.ar    1  UNL1        0.1063
     21 C           6.9350    1.8658    0.0000 C.ar    1  UNL1        0.0237
     22 C           7.7991    0.3209    0.0000 C.3     1  UNL1       -0.0062
     23 H           5.0051   -0.2300    0.0000 H       1  UNL1        0.0377
     24 H           3.4030   -0.5350    0.0000 H       1  UNL1        0.0612
     25 H           5.7456   -1.2627    0.0000 H       1  UNL1        0.0284
     26 H           5.3471   -0.5724    0.0000 H       1  UNL1        0.0284
     27 H           2.7924   -2.0473    0.0000 H       1  UNL1        0.0452
     28 H           3.1909   -2.7376    0.0000 H       1  UNL1        0.0452
     29 H           5.3471   -2.7376    0.0000 H       1  UNL1        0.0427
     30 H           5.7456   -2.0473    0.0000 H       1  UNL1        0.0427
     31 H           3.6490   -3.6550    0.0000 H       1  UNL1        0.0391
     32 H           4.2690   -4.2750    0.0000 H       1  UNL1        0.0391
     33 H           4.8890   -3.6550    0.0000 H       1  UNL1        0.0391
     34 H           2.0000   -0.9650    0.0000 H       1  UNL1        0.2099
     35 H           2.8660    2.1550    0.0000 H       1  UNL1        0.0691
     36 H           2.0000    0.6550    0.0000 H       1  UNL1        0.2921
     37 H           7.4708    2.1779    0.0000 H       1  UNL1        0.0689
     38 H           7.4870   -0.2149    0.0000 H       1  UNL1        0.0308
     39 H           8.3348    0.0088    0.0000 H       1  UNL1        0.0308
     40 H           8.1112    0.8566    0.0000 H       1  UNL1        0.0308
     41 H           3.7320    3.6550    0.0000 H       1  UNL1        0.2922
@<TRIPOS>BOND
     1     8     1    1
     2     1    34    1
     3     2    13   ar
     4     2    20   ar
     5     3    15    1
     6     3    36    1
     7     4    18    1
     8     4    41    1
     9     5    19    2
    10     6    10    1
    11     6    11    1
    12     6    14    1
    13     7     8    1
    14     7     9    1
    15     7    12    1
    16     7    23    1
    17     8    10    1
    18     8    24    1
    19     9    11    1
    20     9    25    1
    21     9    26    1
    22    10    27    1
    23    10    28    1
    24    11    29    1
    25    11    30    1
    26    12    13   ar
    27    12    15   ar
    28    13    16   ar
    29    14    31    1
    30    14    32    1
    31    14    33    1
    32    15    17   ar
    33    16    18   ar
    34    16    19   ar
    35    17    18   ar
    36    17    35    1
    37    19    21   ar
    38    20    21   ar
    39    20    22    1
    40    21    37    1
    41    22    38    1
    42    22    39    1
    43    22    40    1
