@<TRIPOS>MOLECULE
IMPHY005680
 30 32 0 0 0
SMALL
GASTEIGER

@<TRIPOS>ATOM
      1 N           5.5321    0.9827    0.0000 N.ar    1  UNL1       -0.2589
      2 C           4.6660   -0.5173    0.0000 C.3     1  UNL1        0.0154
      3 C           4.6660    0.4827    0.0000 C.ar    1  UNL1        0.0532
      4 C           3.8000    0.9827    0.0000 C.ar    1  UNL1        0.0037
      5 C           3.8000    1.9827    0.0000 C.ar    1  UNL1       -0.0147
      6 C           5.5321   -1.0173    0.0000 C.ar    1  UNL1       -0.0416
      7 C           2.9061    0.4480    0.0000 C.ar    1  UNL1       -0.0523
      8 C           4.6660    2.4827    0.0000 C.ar    1  UNL1       -0.0359
      9 C           2.9061    2.5173    0.0000 C.ar    1  UNL1       -0.0539
     10 C           5.5321   -2.0173    0.0000 C.ar    1  UNL1       -0.0582
     11 C           6.3981   -0.5173    0.0000 C.ar    1  UNL1       -0.0582
     12 C           5.5321    1.9827    0.0000 C.ar    1  UNL1        0.0285
     13 C           2.0000    0.9619    0.0000 C.ar    1  UNL1       -0.0611
     14 C           2.0000    2.0035    0.0000 C.ar    1  UNL1       -0.0612
     15 C           6.3981   -2.5173    0.0000 C.ar    1  UNL1       -0.0615
     16 C           7.2641   -1.0173    0.0000 C.ar    1  UNL1       -0.0615
     17 C           7.2641   -2.0173    0.0000 C.ar    1  UNL1       -0.0617
     18 H           4.0555   -0.4097    0.0000 H       1  UNL1        0.0377
     19 H           4.4540   -1.0999    0.0000 H       1  UNL1        0.0377
     20 H           2.9132   -0.1720    0.0000 H       1  UNL1        0.0624
     21 H           4.6660    3.1027    0.0000 H       1  UNL1        0.0639
     22 H           2.9132    3.1373    0.0000 H       1  UNL1        0.0624
     23 H           4.9951   -2.3273    0.0000 H       1  UNL1        0.0620
     24 H           6.3981    0.1027    0.0000 H       1  UNL1        0.0620
     25 H           6.0690    2.2927    0.0000 H       1  UNL1        0.0830
     26 H           1.4643    0.6498    0.0000 H       1  UNL1        0.0618
     27 H           1.4643    2.3156    0.0000 H       1  UNL1        0.0618
     28 H           6.3981   -3.1373    0.0000 H       1  UNL1        0.0618
     29 H           7.8010   -0.7073    0.0000 H       1  UNL1        0.0618
     30 H           7.8010   -2.3273    0.0000 H       1  UNL1        0.0618
@<TRIPOS>BOND
     1     1     3   ar
     2     1    12   ar
     3     2     3    1
     4     2     6    1
     5     2    18    1
     6     2    19    1
     7     3     4   ar
     8     4     5   ar
     9     4     7   ar
    10     5     8   ar
    11     5     9   ar
    12     6    10   ar
    13     6    11   ar
    14     7    13   ar
    15     7    20    1
    16     8    12   ar
    17     8    21    1
    18     9    14   ar
    19     9    22    1
    20    10    15   ar
    21    10    23    1
    22    11    16   ar
    23    11    24    1
    24    12    25    1
    25    13    14   ar
    26    13    26    1
    27    14    27    1
    28    15    17   ar
    29    15    28    1
    30    16    17   ar
    31    16    29    1
    32    17    30    1
