@<TRIPOS>MOLECULE
IMPHY001064
 43 46 0 0 0
SMALL
GASTEIGER

@<TRIPOS>ATOM
      1 O           2.0520    2.5654    0.0000 O.2     1  UNL1       -0.2670
      2 O           3.8372   -3.6313    0.0000 O.3     1  UNL1       -0.4914
      3 O           7.2920    2.5522    0.0000 O.3     1  UNL1       -0.3874
      4 O           5.6405   -2.5716    0.0000 O.3     1  UNL1       -0.5033
      5 N           2.9180    1.0654    0.0000 N.ar    1  UNL1       -0.3072
      6 N           4.6660    4.1346    0.0000 N.ar    1  UNL1       -0.2621
      7 C           2.0080    0.5585    0.0000 C.3     1  UNL1        0.0307
      8 C           3.7841    0.5654    0.0000 C.ar    1  UNL1        0.0530
      9 C           2.0000   -0.4831    0.0000 C.3     1  UNL1       -0.0088
     10 C           3.8001   -0.4761    0.0000 C.ar    1  UNL1        0.0055
     11 C           2.9021   -1.0039    0.0000 C.ar    1  UNL1       -0.0329
     12 C           4.6501    2.0654    0.0000 C.ar    1  UNL1       -0.0022
     13 C           4.6501    1.0654    0.0000 C.ar    1  UNL1       -0.0292
     14 C           2.9180    2.0654    0.0000 C.ar    1  UNL1        0.2610
     15 C           3.7841    2.5654    0.0000 C.ar    1  UNL1        0.0651
     16 C           5.5601    2.5722    0.0000 C.ar    1  UNL1        0.0066
     17 C           2.8937   -2.0888    0.0000 C.ar    1  UNL1       -0.0125
     18 C           4.7520   -0.9967    0.0000 C.ar    1  UNL1       -0.0071
     19 C           6.4203    2.0623    0.0000 C.3     1  UNL1        0.0793
     20 C           3.8334   -2.6313    0.0000 C.ar    1  UNL1        0.1616
     21 C           4.7688   -2.0816    0.0000 C.ar    1  UNL1        0.1591
     22 C           3.7680    3.6069    0.0000 C.ar    1  UNL1        0.0405
     23 C           5.5681    3.6138    0.0000 C.ar    1  UNL1        0.0338
     24 C           6.4087    1.0623    0.0000 C.3     1  UNL1       -0.0347
     25 C           2.9731   -4.1346    0.0000 C.3     1  UNL1        0.0790
     26 H           1.8035    1.1438    0.0000 H       1  UNL1        0.0496
     27 H           1.3964    0.4572    0.0000 H       1  UNL1        0.0496
     28 H           1.3900   -0.3723    0.0000 H       1  UNL1        0.0331
     29 H           1.7864   -1.0651    0.0000 H       1  UNL1        0.0331
     30 H           5.1870    0.7554    0.0000 H       1  UNL1        0.0644
     31 H           2.3556   -2.3968    0.0000 H       1  UNL1        0.0658
     32 H           5.2829   -0.6764    0.0000 H       1  UNL1        0.0662
     33 H           6.9536    1.7461    0.0000 H       1  UNL1        0.0641
     34 H           3.2275    3.9107    0.0000 H       1  UNL1        0.0837
     35 H           6.1062    3.9218    0.0000 H       1  UNL1        0.0833
     36 H           5.7888    1.0695    0.0000 H       1  UNL1        0.0258
     37 H           6.4015    0.4424    0.0000 H       1  UNL1        0.0258
     38 H           7.0287    1.0552    0.0000 H       1  UNL1        0.0258
     39 H           7.8253    2.2360    0.0000 H       1  UNL1        0.2102
     40 H           5.6477   -3.1915    0.0000 H       1  UNL1        0.2923
     41 H           2.6610   -3.5989    0.0000 H       1  UNL1        0.0660
     42 H           2.4374   -4.4467    0.0000 H       1  UNL1        0.0660
     43 H           3.2852   -4.6704    0.0000 H       1  UNL1        0.0660
@<TRIPOS>BOND
     1     1    14    2
     2     2    20    1
     3     2    25    1
     4    19     3    1
     5     3    39    1
     6     4    21    1
     7     4    40    1
     8     5     7    1
     9     5     8   ar
    10     5    14   ar
    11     6    22   ar
    12     6    23   ar
    13     7     9    1
    14     7    26    1
    15     7    27    1
    16     8    10    1
    17     8    13   ar
    18     9    11    1
    19     9    28    1
    20     9    29    1
    21    10    11   ar
    22    10    18   ar
    23    11    17   ar
    24    12    13   ar
    25    12    15   ar
    26    12    16   ar
    27    13    30    1
    28    14    15   ar
    29    15    22   ar
    30    16    19    1
    31    16    23   ar
    32    17    20   ar
    33    17    31    1
    34    18    21   ar
    35    18    32    1
    36    19    24    1
    37    19    33    1
    38    20    21   ar
    39    22    34    1
    40    23    35    1
    41    24    36    1
    42    24    37    1
    43    24    38    1
    44    25    41    1
    45    25    42    1
    46    25    43    1
