@<TRIPOS>MOLECULE
IMPHY002986
 59 62 0 0 0
SMALL
GASTEIGER

@<TRIPOS>ATOM
      1 O           6.3301   -1.8696    0.0000 O.3     1  UNL1       -0.3302
      2 O           8.0622   -1.8696    0.0000 O.3     1  UNL1       -0.4606
      3 O           4.5981   -3.8696    0.0000 O.3     1  UNL1       -0.3864
      4 O           6.3301   -4.8696    0.0000 O.3     1  UNL1       -0.3864
      5 O           8.0622   -3.8696    0.0000 O.3     1  UNL1       -0.3829
      6 O           3.7320   -2.3696    0.0000 O.3     1  UNL1       -0.4621
      7 O           9.8181    1.1930    0.0000 O.2     1  UNL1       -0.4544
      8 O           6.3159    1.2096    0.0000 O.3     1  UNL1       -0.5058
      9 O           2.8660   -0.8696    0.0000 O.2     1  UNL1       -0.2512
     10 O           7.2259    2.7030    0.0000 O.2     1  UNL1       -0.2869
     11 O          13.2938    4.1796    0.0000 O.3     1  UNL1       -0.4951
     12 C           5.4641   -3.3696    0.0000 C.3     1  UNL1        0.1130
     13 C           6.3301   -3.8696    0.0000 C.3     1  UNL1        0.1152
     14 C           5.4641   -2.3696    0.0000 C.3     1  UNL1        0.1250
     15 C           7.1962   -3.3696    0.0000 C.3     1  UNL1        0.1454
     16 C           7.1962   -2.3696    0.0000 C.3     1  UNL1        0.2308
     17 C           4.5981   -1.8696    0.0000 C.3     1  UNL1        0.1212
     18 C           8.0622   -0.8696    0.0000 C.ar    1  UNL1        0.1310
     19 C           8.9622   -0.3453    0.0000 C.ar    1  UNL1        0.0235
     20 C           7.1621   -0.3453    0.0000 C.ar    1  UNL1        0.0226
     21 C           8.9502    0.6963    0.0000 C.ar    1  UNL1        0.1462
     22 C           8.0861    1.1996    0.0000 C.ar    1  UNL1        0.1055
     23 C           2.8660   -1.8696    0.0000 C.2     1  UNL1        0.3040
     24 C           7.1742    0.6963    0.0000 C.ar    1  UNL1        0.1347
     25 C           8.0900    2.1996    0.0000 C.ar    1  UNL1        0.1966
     26 C           9.8220    2.1929    0.0000 C.ar    1  UNL1        0.1392
     27 C           2.0000   -2.3696    0.0000 C.3     1  UNL1        0.0332
     28 C           8.9579    2.6963    0.0000 C.ar    1  UNL1        0.0288
     29 C          10.6899    2.6896    0.0000 C.ar    1  UNL1        0.0176
     30 C          11.5540    2.1863    0.0000 C.ar    1  UNL1       -0.0476
     31 C          10.6938    3.6896    0.0000 C.ar    1  UNL1       -0.0476
     32 C          12.4220    2.6829    0.0000 C.ar    1  UNL1       -0.0193
     33 C          11.5617    4.1862    0.0000 C.ar    1  UNL1       -0.0193
     34 C          12.4258    3.6829    0.0000 C.ar    1  UNL1        0.1201
     35 C          13.2976    5.1796    0.0000 C.3     1  UNL1        0.0788
     36 H           5.4641   -3.9896    0.0000 H       1  UNL1        0.0647
     37 H           6.8671   -4.1796    0.0000 H       1  UNL1        0.0648
     38 H           5.4641   -1.7496    0.0000 H       1  UNL1        0.0658
     39 H           7.7331   -3.0596    0.0000 H       1  UNL1        0.0683
     40 H           7.1962   -1.7496    0.0000 H       1  UNL1        0.1084
     41 H           4.9966   -1.3946    0.0000 H       1  UNL1        0.0724
     42 H           4.1996   -1.3946    0.0000 H       1  UNL1        0.0724
     43 H           4.5981   -4.4896    0.0000 H       1  UNL1        0.2100
     44 H           5.7932   -5.1796    0.0000 H       1  UNL1        0.2100
     45 H           8.0622   -4.4896    0.0000 H       1  UNL1        0.2102
     46 H           9.5016   -0.6511    0.0000 H       1  UNL1        0.0691
     47 H           6.6228   -0.6511    0.0000 H       1  UNL1        0.0691
     48 H           1.6900   -1.8326    0.0000 H       1  UNL1        0.0342
     49 H           1.4631   -2.6796    0.0000 H       1  UNL1        0.0342
     50 H           2.3100   -2.9065    0.0000 H       1  UNL1        0.0342
     51 H           8.9603    3.3163    0.0000 H       1  UNL1        0.0693
     52 H           5.7743    0.9079    0.0000 H       1  UNL1        0.2922
     53 H          11.5516    1.5663    0.0000 H       1  UNL1        0.0626
     54 H          10.1581    4.0017    0.0000 H       1  UNL1        0.0626
     55 H          12.9577    2.3708    0.0000 H       1  UNL1        0.0654
     56 H          11.5641    4.8062    0.0000 H       1  UNL1        0.0654
     57 H          13.9176    5.1772    0.0000 H       1  UNL1        0.0660
     58 H          13.3000    5.7996    0.0000 H       1  UNL1        0.0660
     59 H          12.6776    5.1819    0.0000 H       1  UNL1        0.0660
@<TRIPOS>BOND
     1     1    14    1
     2     1    16    1
     3    16     2    1
     4     2    18    1
     5    12     3    1
     6     3    43    1
     7    13     4    1
     8     4    44    1
     9    15     5    1
    10     5    45    1
    11     6    17    1
    12     6    23    1
    13     7    21   ar
    14     7    26   ar
    15     8    24    1
    16     8    52    1
    17     9    23    2
    18    10    25    2
    19    11    34    1
    20    11    35    1
    21    12    13    1
    22    12    14    1
    23    12    36    1
    24    13    15    1
    25    13    37    1
    26    14    17    1
    27    14    38    1
    28    15    16    1
    29    15    39    1
    30    16    40    1
    31    17    41    1
    32    17    42    1
    33    18    19   ar
    34    18    20   ar
    35    19    21   ar
    36    19    46    1
    37    20    24   ar
    38    20    47    1
    39    21    22   ar
    40    22    24   ar
    41    22    25   ar
    42    23    27    1
    43    25    28   ar
    44    26    28   ar
    45    26    29    1
    46    27    48    1
    47    27    49    1
    48    27    50    1
    49    28    51    1
    50    29    30   ar
    51    29    31   ar
    52    30    32   ar
    53    30    53    1
    54    31    33   ar
    55    31    54    1
    56    32    34   ar
    57    32    55    1
    58    33    34   ar
    59    33    56    1
    60    35    57    1
    61    35    58    1
    62    35    59    1
