@<TRIPOS>MOLECULE
IMPHY015328
 20 20 0 0 0
SMALL
GASTEIGER

@<TRIPOS>ATOM
      1 O           3.7320    1.4400    0.0000 O.3     1  UNL1       -0.3947
      2 C           2.8660   -0.0600    0.0000 C.3     1  UNL1       -0.0141
      3 C           2.0000   -0.5600    0.0000 C.3     1  UNL1       -0.0444
      4 C           3.7320   -0.5600    0.0000 C.3     1  UNL1       -0.0298
      5 C           2.0000   -1.5600    0.0000 C.3     1  UNL1       -0.0344
      6 C           2.8660    0.9400    0.0000 C.3     1  UNL1        0.0473
      7 C           3.7320   -1.5600    0.0000 C.2     1  UNL1       -0.0876
      8 C           2.8660   -2.0600    0.0000 C.2     1  UNL1       -0.0879
      9 H           3.4030    0.2500    0.0000 H       1  UNL1        0.0326
     10 H           1.7880    0.0226    0.0000 H       1  UNL1        0.0272
     11 H           1.3894   -0.6677    0.0000 H       1  UNL1        0.0272
     12 H           4.3426   -0.6677    0.0000 H       1  UNL1        0.0311
     13 H           3.9441    0.0226    0.0000 H       1  UNL1        0.0311
     14 H           1.3894   -1.4523    0.0000 H       1  UNL1        0.0307
     15 H           1.7880   -2.1426    0.0000 H       1  UNL1        0.0307
     16 H           2.6540    1.5226    0.0000 H       1  UNL1        0.0560
     17 H           2.2554    0.8323    0.0000 H       1  UNL1        0.0560
     18 H           4.2690   -1.8700    0.0000 H       1  UNL1        0.0569
     19 H           2.8660   -2.6800    0.0000 H       1  UNL1        0.0569
     20 H           3.7320    2.0600    0.0000 H       1  UNL1        0.2094
@<TRIPOS>BOND
     1     1     6    1
     2     1    20    1
     3     2     3    1
     4     2     4    1
     5     2     6    1
     6     2     9    1
     7     3     5    1
     8     3    10    1
     9     3    11    1
    10     4     7    1
    11     4    12    1
    12     4    13    1
    13     5     8    1
    14     5    14    1
    15     5    15    1
    16     6    16    1
    17     6    17    1
    18     7     8    2
    19     7    18    1
    20     8    19    1
