@<TRIPOS>MOLECULE
IMPHY006205
 90 93 0 0 0
SMALL
GASTEIGER

@<TRIPOS>ATOM
      1 O           5.1350   -4.0863    0.0000 O.3     1  UNL1       -0.3404
      2 O          12.4971    0.8645    0.0000 O.3     1  UNL1       -0.3394
      3 O           6.8671   -4.0863    0.0000 O.3     1  UNL1       -0.3061
      4 O           5.1350   -7.0863    0.0000 O.3     1  UNL1       -0.3864
      5 O           3.4030   -6.0863    0.0000 O.3     1  UNL1       -0.3865
      6 O          14.1247    1.4569    0.0000 O.3     1  UNL1       -0.3484
      7 O           6.8671   -6.0863    0.0000 O.3     1  UNL1       -0.3841
      8 O          11.5535   -1.6073    0.0000 O.3     1  UNL1       -0.3864
      9 O          13.5232   -1.9546    0.0000 O.3     1  UNL1       -0.3864
     10 O          14.8087   -0.4225    0.0000 O.3     1  UNL1       -0.3841
     11 O          10.2267   -0.4939    0.0000 O.3     1  UNL1       -0.4619
     12 O           6.0010   -2.5863    0.0000 O.2     1  UNL1       -0.4666
     13 O           2.5369   -4.5863    0.0000 O.3     1  UNL1       -0.3924
     14 O           8.8999    0.6194    0.0000 O.2     1  UNL1       -0.2508
     15 O           6.0010    0.4137    0.0000 O.3     1  UNL1       -0.4646
     16 O           7.2091    0.8533    0.0000 O.2     1  UNL1       -0.2452
     17 O          13.0574    6.9214    0.0000 O.3     1  UNL1       -0.5068
     18 C           5.1350   -6.0863    0.0000 C.3     1  UNL1        0.1141
     19 C           4.2690   -5.5863    0.0000 C.3     1  UNL1        0.1119
     20 C           6.0010   -5.5863    0.0000 C.3     1  UNL1        0.1343
     21 C          12.1963   -0.8412    0.0000 C.3     1  UNL1        0.1129
     22 C           4.2690   -4.5863    0.0000 C.3     1  UNL1        0.1130
     23 C          13.1811   -1.0149    0.0000 C.3     1  UNL1        0.1141
     24 C          11.8543    0.0984    0.0000 C.3     1  UNL1        0.1240
     25 C           6.0010   -4.5863    0.0000 C.3     1  UNL1        0.1921
     26 C          13.8239   -0.2488    0.0000 C.3     1  UNL1        0.1341
     27 C          13.4819    0.6908    0.0000 C.3     1  UNL1        0.1880
     28 C          10.8695    0.2721    0.0000 C.3     1  UNL1        0.1211
     29 C           6.8671   -3.0863    0.0000 C.3     1  UNL1        0.2266
     30 C           7.7331   -1.5863    0.0000 C.3     1  UNL1        0.0307
     31 C           3.4030   -4.0863    0.0000 C.3     1  UNL1        0.0730
     32 C           7.7331   -2.5863    0.0000 C.2     1  UNL1        0.0019
     33 C           8.5991   -1.0863    0.0000 C.3     1  UNL1        0.0559
     34 C           6.8671   -1.0863    0.0000 C.2     1  UNL1        0.0785
     35 C           9.2419   -0.3203    0.0000 C.2     1  UNL1        0.3081
     36 C          13.7827    2.3966    0.0000 C.3     1  UNL1        0.0547
     37 C           6.0010   -1.5863    0.0000 C.2     1  UNL1        0.0988
     38 C           8.5991   -3.0863    0.0000 C.2     1  UNL1       -0.0814
     39 C          14.4255    3.1626    0.0000 C.3     1  UNL1       -0.0040
     40 C           6.8671   -0.0863    0.0000 C.2     1  UNL1        0.3384
     41 C           9.4651   -2.5863    0.0000 C.3     1  UNL1       -0.0464
     42 C          14.0834    4.1023    0.0000 C.ar    1  UNL1       -0.0450
     43 C          14.7262    4.8684    0.0000 C.ar    1  UNL1       -0.0551
     44 C          13.0986    4.2760    0.0000 C.ar    1  UNL1       -0.0551
     45 C           6.0010    1.4137    0.0000 C.3     1  UNL1        0.0820
     46 C          14.3842    5.8081    0.0000 C.ar    1  UNL1       -0.0199
     47 C          12.7566    5.2157    0.0000 C.ar    1  UNL1       -0.0199
     48 C          13.3994    5.9817    0.0000 C.ar    1  UNL1        0.1169
     49 H           5.6720   -6.3963    0.0000 H       1  UNL1        0.0648
     50 H           4.2690   -6.2063    0.0000 H       1  UNL1        0.0647
     51 H           6.5380   -5.2763    0.0000 H       1  UNL1        0.0671
     52 H          11.5857   -0.7336    0.0000 H       1  UNL1        0.0647
     53 H           4.2690   -3.9663    0.0000 H       1  UNL1        0.0647
     54 H          13.7917   -1.1226    0.0000 H       1  UNL1        0.0648
     55 H          11.6423    0.6811    0.0000 H       1  UNL1        0.0658
     56 H           6.0010   -3.9663    0.0000 H       1  UNL1        0.0939
     57 H          14.2224    0.2261    0.0000 H       1  UNL1        0.0671
     58 H          13.2698    1.2734    0.0000 H       1  UNL1        0.0937
     59 H          11.0815    0.8547    0.0000 H       1  UNL1        0.0724
     60 H          10.3326    0.5821    0.0000 H       1  UNL1        0.0724
     61 H           7.4040   -3.3963    0.0000 H       1  UNL1        0.1109
     62 H           8.4692   -2.0113    0.0000 H       1  UNL1        0.0404
     63 H           3.8015   -3.6114    0.0000 H       1  UNL1        0.0584
     64 H           3.0044   -3.6114    0.0000 H       1  UNL1        0.0584
     65 H           8.6711   -1.7022    0.0000 H       1  UNL1        0.0387
     66 H           8.2006   -0.6114    0.0000 H       1  UNL1        0.0387
     67 H           4.5981   -7.3963    0.0000 H       1  UNL1        0.2100
     68 H           3.4030   -6.7063    0.0000 H       1  UNL1        0.2100
     69 H           6.8671   -6.7063    0.0000 H       1  UNL1        0.2101
     70 H          11.7656   -2.1899    0.0000 H       1  UNL1        0.2100
     71 H          14.1337   -2.0622    0.0000 H       1  UNL1        0.2100
     72 H          15.2073    0.0525    0.0000 H       1  UNL1        0.2101
     73 H          13.3841    2.8715    0.0000 H       1  UNL1        0.0564
     74 H          13.2457    2.0866    0.0000 H       1  UNL1        0.0564
     75 H           5.4641   -1.2763    0.0000 H       1  UNL1        0.1030
     76 H           8.5991   -3.7063    0.0000 H       1  UNL1        0.0571
     77 H           2.0000   -4.2763    0.0000 H       1  UNL1        0.2095
     78 H          14.8240    2.6877    0.0000 H       1  UNL1        0.0335
     79 H          14.9624    3.4726    0.0000 H       1  UNL1        0.0335
     80 H           9.7751   -3.1233    0.0000 H       1  UNL1        0.0272
     81 H          10.0021   -2.2763    0.0000 H       1  UNL1        0.0272
     82 H           9.1551   -2.0494    0.0000 H       1  UNL1        0.0272
     83 H          15.3368    4.7607    0.0000 H       1  UNL1        0.0621
     84 H          12.7001    3.8010    0.0000 H       1  UNL1        0.0621
     85 H           6.6210    1.4137    0.0000 H       1  UNL1        0.0661
     86 H           6.0010    2.0337    0.0000 H       1  UNL1        0.0661
     87 H           5.3810    1.4137    0.0000 H       1  UNL1        0.0661
     88 H          14.7827    6.2830    0.0000 H       1  UNL1        0.0654
     89 H          12.1460    5.3233    0.0000 H       1  UNL1        0.0654
     90 H          13.4559    7.3963    0.0000 H       1  UNL1        0.2921
@<TRIPOS>BOND
     1     1    22    1
     2     1    25    1
     3     2    24    1
     4     2    27    1
     5    25     3    1
     6    29     3    1
     7    18     4    1
     8     4    67    1
     9    19     5    1
    10     5    68    1
    11    27     6    1
    12     6    36    1
    13    20     7    1
    14     7    69    1
    15    21     8    1
    16     8    70    1
    17    23     9    1
    18     9    71    1
    19    26    10    1
    20    10    72    1
    21    11    28    1
    22    11    35    1
    23    12    29    1
    24    12    37    1
    25    13    31    1
    26    13    77    1
    27    14    35    2
    28    15    40    1
    29    15    45    1
    30    16    40    2
    31    17    48    1
    32    17    90    1
    33    18    19    1
    34    18    20    1
    35    18    49    1
    36    19    22    1
    37    19    50    1
    38    20    25    1
    39    20    51    1
    40    21    23    1
    41    21    24    1
    42    21    52    1
    43    22    31    1
    44    22    53    1
    45    23    26    1
    46    23    54    1
    47    24    28    1
    48    24    55    1
    49    25    56    1
    50    26    27    1
    51    26    57    1
    52    27    58    1
    53    28    59    1
    54    28    60    1
    55    29    32    1
    56    29    61    1
    57    30    32    1
    58    30    33    1
    59    30    34    1
    60    30    62    1
    61    31    63    1
    62    31    64    1
    63    32    38    2
    64    33    35    1
    65    33    65    1
    66    33    66    1
    67    34    37    2
    68    34    40    1
    69    36    39    1
    70    36    73    1
    71    36    74    1
    72    37    75    1
    73    38    41    1
    74    38    76    1
    75    39    42    1
    76    39    78    1
    77    39    79    1
    78    41    80    1
    79    41    81    1
    80    41    82    1
    81    42    43   ar
    82    42    44   ar
    83    43    46   ar
    84    43    83    1
    85    44    47   ar
    86    44    84    1
    87    45    85    1
    88    45    86    1
    89    45    87    1
    90    46    48   ar
    91    46    88    1
    92    47    48   ar
    93    47    89    1
