@<TRIPOS>MOLECULE
IMPHY005186
 105 110 0 0 0
SMALL
GASTEIGER

@<TRIPOS>ATOM
      1 O           5.1365    1.4534    0.0000 O.3     1  UNL1       -0.3912
      2 O           7.8620    6.1324    0.0000 O.3     1  UNL1       -0.3886
      3 O           9.6571    5.0588    0.0000 O.3     1  UNL1       -0.3892
      4 O           5.4100    5.4690    0.0000 O.3     1  UNL1       -0.3944
      5 O           6.0010   -3.1262    0.0000 O.3     1  UNL1       -0.4318
      6 O           5.1350   -1.6262    0.0000 O.2     1  UNL1       -0.2501
      7 O           4.2690   -3.1262    0.0000 O.3     1  UNL1       -0.3312
      8 O           6.0010   -5.1262    0.0000 O.3     1  UNL1       -0.3829
      9 O           4.2690   -6.1262    0.0000 O.3     1  UNL1       -0.3864
     10 O           2.5369   -5.1262    0.0000 O.3     1  UNL1       -0.3865
     11 O           2.5369   -2.1262    0.0000 O.3     1  UNL1       -0.3924
     12 C           6.9067    1.4429    0.0000 C.3     1  UNL1        0.0066
     13 C           7.7765    1.9362    0.0000 C.3     1  UNL1       -0.0233
     14 C           7.8006    2.9776    0.0000 C.3     1  UNL1       -0.0224
     15 C           6.8990    0.4429    0.0000 C.3     1  UNL1       -0.0028
     16 C           6.9067    3.5122    0.0000 C.3     1  UNL1       -0.0230
     17 C           6.0006    1.9567    0.0000 C.3     1  UNL1        0.0620
     18 C           6.0006    2.9984    0.0000 C.3     1  UNL1       -0.0223
     19 C           6.9067    4.5972    0.0000 C.3     1  UNL1        0.0228
     20 C           7.7611   -0.0637    0.0000 C.2     1  UNL1       -0.0628
     21 C           8.6387    1.4295    0.0000 C.3     1  UNL1       -0.0305
     22 C           8.7565    3.4908    0.0000 C.3     1  UNL1       -0.0184
     23 C           7.7691   -1.1053    0.0000 C.3     1  UNL1       -0.0031
     24 C           5.9851   -0.0569    0.0000 C.3     1  UNL1       -0.0423
     25 C           6.8671   -1.6262    0.0000 C.3     1  UNL1        0.0744
     26 C           5.9206    1.2769    0.0000 C.3     1  UNL1       -0.0561
     27 C           5.9690   -1.0984    0.0000 C.3     1  UNL1       -0.0359
     28 C           7.8505    5.1325    0.0000 C.3     1  UNL1        0.0888
     29 C           8.7816    4.5755    0.0000 C.3     1  UNL1        0.0822
     30 C           8.6588    2.4643    0.0000 C.3     1  UNL1       -0.0589
     31 C           8.6310    0.4296    0.0000 C.2     1  UNL1       -0.0836
     32 C           5.9155    0.6242    0.0000 C.3     1  UNL1       -0.0552
     33 C           8.7170   -1.6333    0.0000 C.3     1  UNL1       -0.0403
     34 C           6.8503   -2.7110    0.0000 C.3     1  UNL1       -0.0362
     35 C           8.7254   -2.7182    0.0000 C.3     1  UNL1       -0.0343
     36 C           6.4100    5.4652    0.0000 C.3     1  UNL1        0.0523
     37 C           5.9067    4.6011    0.0000 C.3     1  UNL1       -0.0547
     38 C           7.7858   -3.2607    0.0000 C.3     1  UNL1       -0.0468
     39 C           6.0010   -2.1262    0.0000 C.2     1  UNL1        0.3161
     40 C           9.7254   -2.7144    0.0000 C.3     1  UNL1       -0.0598
     41 C           9.2287   -3.5823    0.0000 C.3     1  UNL1       -0.0598
     42 C           5.1350   -3.6262    0.0000 C.3     1  UNL1        0.2337
     43 C           5.1350   -4.6262    0.0000 C.3     1  UNL1        0.1455
     44 C           4.2690   -5.1262    0.0000 C.3     1  UNL1        0.1152
     45 C           3.4030   -3.6262    0.0000 C.3     1  UNL1        0.1140
     46 C           3.4030   -4.6262    0.0000 C.3     1  UNL1        0.1120
     47 C           2.5369   -3.1262    0.0000 C.3     1  UNL1        0.0731
     48 H           8.5191    2.3498    0.0000 H       1  UNL1        0.0315
     49 H           6.1722    3.9400    0.0000 H       1  UNL1        0.0314
     50 H           5.4631    2.2657    0.0000 H       1  UNL1        0.0599
     51 H           5.7916    3.5821    0.0000 H       1  UNL1        0.0293
     52 H           5.3898    2.8923    0.0000 H       1  UNL1        0.0293
     53 H           9.2484    1.3172    0.0000 H       1  UNL1        0.0310
     54 H           8.8552    2.0105    0.0000 H       1  UNL1        0.0310
     55 H           8.9520    2.9025    0.0000 H       1  UNL1        0.0296
     56 H           9.3697    3.5828    0.0000 H       1  UNL1        0.0296
     57 H           8.5003   -0.6719    0.0000 H       1  UNL1        0.0357
     58 H           5.7850    0.5300    0.0000 H       1  UNL1        0.0274
     59 H           5.3727   -0.1536    0.0000 H       1  UNL1        0.0274
     60 H           5.8176    1.8883    0.0000 H       1  UNL1        0.0236
     61 H           5.3092    1.1740    0.0000 H       1  UNL1        0.0236
     62 H           6.0235    0.6655    0.0000 H       1  UNL1        0.0236
     63 H           5.3599   -0.9829    0.0000 H       1  UNL1        0.0276
     64 H           5.7510   -1.6788    0.0000 H       1  UNL1        0.0276
     65 H           7.3165    5.4476    0.0000 H       1  UNL1        0.0625
     66 H           8.7924    5.1954    0.0000 H       1  UNL1        0.0619
     67 H           8.3406    1.9322    0.0000 H       1  UNL1        0.0235
     68 H           9.1909    2.1460    0.0000 H       1  UNL1        0.0235
     69 H           8.9771    2.9964    0.0000 H       1  UNL1        0.0235
     70 H           9.1655    0.1154    0.0000 H       1  UNL1        0.0572
     71 H           6.0279    1.2339    0.0000 H       1  UNL1        0.0238
     72 H           5.3058    0.7365    0.0000 H       1  UNL1        0.0238
     73 H           5.8032    0.0144    0.0000 H       1  UNL1        0.0238
     74 H           9.3287   -1.7347    0.0000 H       1  UNL1        0.0276
     75 H           8.9216   -1.0480    0.0000 H       1  UNL1        0.0276
     76 H           6.2412   -2.5955    0.0000 H       1  UNL1        0.0276
     77 H           6.6323   -3.2914    0.0000 H       1  UNL1        0.0276
     78 H           6.9934    5.6750    0.0000 H       1  UNL1        0.0563
     79 H           6.3047    6.0762    0.0000 H       1  UNL1        0.0563
     80 H           5.9091    5.2211    0.0000 H       1  UNL1        0.0237
     81 H           5.2867    4.6035    0.0000 H       1  UNL1        0.0237
     82 H           5.9043    3.9811    0.0000 H       1  UNL1        0.0237
     83 H           7.3848   -3.7336    0.0000 H       1  UNL1        0.0271
     84 H           8.1831   -3.7367    0.0000 H       1  UNL1        0.0271
     85 H           4.5984    1.7613    0.0000 H       1  UNL1        0.2098
     86 H           8.4025    6.4361    0.0000 H       1  UNL1        0.2099
     87 H          10.1880    4.7385    0.0000 H       1  UNL1        0.2099
     88 H           9.7278   -3.3344    0.0000 H       1  UNL1        0.0235
     89 H           8.6930   -3.8944    0.0000 H       1  UNL1        0.0235
     90 H          10.3454   -2.7120    0.0000 H       1  UNL1        0.0235
     91 H           9.5408   -4.1181    0.0000 H       1  UNL1        0.0235
     92 H           9.7645   -3.2703    0.0000 H       1  UNL1        0.0235
     93 H           9.7230   -2.0944    0.0000 H       1  UNL1        0.0235
     94 H           5.1021    6.0071    0.0000 H       1  UNL1        0.2094
     95 H           5.1350   -3.0062    0.0000 H       1  UNL1        0.1085
     96 H           5.1350   -5.2462    0.0000 H       1  UNL1        0.0683
     97 H           3.7320   -5.4361    0.0000 H       1  UNL1        0.0648
     98 H           3.4030   -3.0062    0.0000 H       1  UNL1        0.0647
     99 H           2.8660   -4.3162    0.0000 H       1  UNL1        0.0647
    100 H           6.5380   -4.8162    0.0000 H       1  UNL1        0.2102
    101 H           1.9264   -3.0185    0.0000 H       1  UNL1        0.0584
    102 H           2.3249   -3.7088    0.0000 H       1  UNL1        0.0584
    103 H           3.7320   -6.4361    0.0000 H       1  UNL1        0.2100
    104 H           2.0000   -4.8162    0.0000 H       1  UNL1        0.2100
    105 H           2.0000   -1.8162    0.0000 H       1  UNL1        0.2095
@<TRIPOS>BOND
     1    17     1    1
     2     1    85    1
     3    28     2    1
     4     2    86    1
     5    29     3    1
     6     3    87    1
     7     4    36    1
     8     4    94    1
     9     5    39    1
    10    42     5    1
    11     6    39    2
    12     7    42    1
    13     7    45    1
    14    43     8    1
    15     8   100    1
    16    44     9    1
    17     9   103    1
    18    46    10    1
    19    10   104    1
    20    11    47    1
    21    11   105    1
    22    12    13    1
    23    12    15    1
    24    12    17    1
    25    12    26    1
    26    13    14    1
    27    13    21    1
    28    13    48    1
    29    14    16    1
    30    14    22    1
    31    14    30    1
    32    15    20    1
    33    15    24    1
    34    15    32    1
    35    16    18    1
    36    16    19    1
    37    16    49    1
    38    17    18    1
    39    17    50    1
    40    18    51    1
    41    18    52    1
    42    19    28    1
    43    19    36    1
    44    19    37    1
    45    20    23    1
    46    20    31    2
    47    21    31    1
    48    21    53    1
    49    21    54    1
    50    22    29    1
    51    22    55    1
    52    22    56    1
    53    23    25    1
    54    23    33    1
    55    23    57    1
    56    24    27    1
    57    24    58    1
    58    24    59    1
    59    25    27    1
    60    25    34    1
    61    25    39    1
    62    26    60    1
    63    26    61    1
    64    26    62    1
    65    27    63    1
    66    27    64    1
    67    28    29    1
    68    28    65    1
    69    29    66    1
    70    30    67    1
    71    30    68    1
    72    30    69    1
    73    31    70    1
    74    32    71    1
    75    32    72    1
    76    32    73    1
    77    33    35    1
    78    33    74    1
    79    33    75    1
    80    34    38    1
    81    34    76    1
    82    34    77    1
    83    35    38    1
    84    35    40    1
    85    35    41    1
    86    36    78    1
    87    36    79    1
    88    37    80    1
    89    37    81    1
    90    37    82    1
    91    38    83    1
    92    38    84    1
    93    40    88    1
    94    40    90    1
    95    40    93    1
    96    41    89    1
    97    41    91    1
    98    41    92    1
    99    42    43    1
   100    42    95    1
   101    43    44    1
   102    43    96    1
   103    44    46    1
   104    44    97    1
   105    45    46    1
   106    45    47    1
   107    45    98    1
   108    46    99    1
   109    47   101    1
   110    47   102    1
