@<TRIPOS>MOLECULE
IMPHY014686
 40 44 0 0 0
SMALL
GASTEIGER

@<TRIPOS>ATOM
      1 O           8.9116    1.2899    0.0000 O.3     1  UNL1       -0.3757
      2 O           2.6079   -0.4170    0.0000 O.3     1  UNL1       -0.4526
      3 O           2.6079   -2.0934    0.0000 O.3     1  UNL1       -0.4526
      4 N           7.1256   -1.7552    0.0000 N.3     1  UNL1       -0.2939
      5 C           6.2596   -0.2552    0.0000 C.3     1  UNL1        0.0310
      6 C           7.1256   -0.7552    0.0000 C.3     1  UNL1        0.0265
      7 C           6.1461   -0.8588    0.0000 C.3     1  UNL1       -0.0256
      8 C           6.5462   -1.5516    0.0000 C.3     1  UNL1        0.0007
      9 C           8.0356   -0.2484    0.0000 C.3     1  UNL1       -0.0062
     10 C           5.3935   -0.7552    0.0000 C.ar    1  UNL1       -0.0278
     11 C           6.2596   -2.2552    0.0000 C.3     1  UNL1        0.0248
     12 C           6.2435    0.7863    0.0000 C.2     1  UNL1       -0.0736
     13 C           5.3935   -1.7552    0.0000 C.ar    1  UNL1       -0.0256
     14 C           8.0436    0.7932    0.0000 C.3     1  UNL1        0.0779
     15 C           7.1415    1.3140    0.0000 C.2     1  UNL1       -0.0586
     16 C           4.4996   -0.2206    0.0000 C.ar    1  UNL1       -0.0118
     17 C           4.4996   -2.2899    0.0000 C.ar    1  UNL1       -0.0114
     18 C           3.5935   -0.7344    0.0000 C.ar    1  UNL1        0.1665
     19 C           3.5935   -1.7760    0.0000 C.ar    1  UNL1        0.1665
     20 C           8.9154    2.2899    0.0000 C.3     1  UNL1        0.0372
     21 C           2.0000   -1.2552    0.0000 C.3     1  UNL1        0.2332
     22 H           7.8617   -1.1802    0.0000 H       1  UNL1        0.0475
     23 H           5.5942   -0.5764    0.0000 H       1  UNL1        0.0290
     24 H           5.7190   -1.3082    0.0000 H       1  UNL1        0.0290
     25 H           5.9434   -1.6969    0.0000 H       1  UNL1        0.0427
     26 H           6.5147   -2.1708    0.0000 H       1  UNL1        0.0427
     27 H           8.2401   -0.8337    0.0000 H       1  UNL1        0.0309
     28 H           8.6472   -0.1470    0.0000 H       1  UNL1        0.0309
     29 H           5.8610   -2.7302    0.0000 H       1  UNL1        0.0476
     30 H           6.6581   -2.7302    0.0000 H       1  UNL1        0.0476
     31 H           5.7030    1.0901    0.0000 H       1  UNL1        0.0579
     32 H           8.0448    1.4132    0.0000 H       1  UNL1        0.0641
     33 H           7.1391    1.9340    0.0000 H       1  UNL1        0.0595
     34 H           4.5068    0.3994    0.0000 H       1  UNL1        0.0658
     35 H           4.5068   -2.9098    0.0000 H       1  UNL1        0.0658
     36 H           9.5354    2.2875    0.0000 H       1  UNL1        0.0524
     37 H           8.9178    2.9099    0.0000 H       1  UNL1        0.0524
     38 H           8.2954    2.2923    0.0000 H       1  UNL1        0.0524
     39 H           1.5391   -0.8405    0.0000 H       1  UNL1        0.1166
     40 H           1.5391   -1.6700    0.0000 H       1  UNL1        0.1166
@<TRIPOS>BOND
     1    14     1    1
     2     1    20    1
     3     2    18    1
     4     2    21    1
     5     3    19    1
     6     3    21    1
     7     4     6    1
     8     4     8    1
     9     4    11    1
    10     5     6    1
    11     5     7    1
    12     5    10    1
    13     5    12    1
    14     6     9    1
    15     6    22    1
    16     7     8    1
    17     7    23    1
    18     7    24    1
    19     8    25    1
    20     8    26    1
    21     9    14    1
    22     9    27    1
    23     9    28    1
    24    10    13   ar
    25    10    16   ar
    26    11    13    1
    27    11    29    1
    28    11    30    1
    29    12    15    2
    30    12    31    1
    31    13    17   ar
    32    14    15    1
    33    14    32    1
    34    15    33    1
    35    16    18   ar
    36    16    34    1
    37    17    19   ar
    38    17    35    1
    39    18    19   ar
    40    20    36    1
    41    20    37    1
    42    20    38    1
    43    21    39    1
    44    21    40    1
