@<TRIPOS>MOLECULE
IMPHY002206
 117 123 0 0 0
SMALL
GASTEIGER

@<TRIPOS>ATOM
      1 O          15.1835    2.2089    0.0000 O.3     1  UNL1       -0.3602
      2 O          14.3037   -1.2882    0.0000 O.3     1  UNL1       -0.4579
      3 O          12.5755   -0.2816    0.0000 O.3     1  UNL1       -0.3877
      4 O           9.7942    3.2815    0.0000 O.3     1  UNL1       -0.3480
      5 O          15.7568   -1.7934    0.0000 O.2     1  UNL1       -0.2974
      6 O          12.5717   -1.2816    0.0000 O.2     1  UNL1       -0.2505
      7 O           8.0622    3.2815    0.0000 O.3     1  UNL1       -0.3456
      8 O           8.0622    0.2815    0.0000 O.3     1  UNL1       -0.3770
      9 O           6.3301    1.2815    0.0000 O.3     1  UNL1       -0.3403
     10 O           5.4641    2.7815    0.0000 O.3     1  UNL1       -0.3431
     11 O           4.5981    0.2815    0.0000 O.3     1  UNL1       -0.3841
     12 O           2.8660    1.2815    0.0000 O.3     1  UNL1       -0.3744
     13 O           2.8660    3.2815    0.0000 O.3     1  UNL1       -0.3866
     14 C          15.1794    1.2084    0.0000 C.3     1  UNL1        0.1089
     15 C          14.3153    1.7118    0.0000 C.3     1  UNL1        0.1056
     16 C          15.1755    0.2084    0.0000 C.3     1  UNL1        0.0485
     17 C          13.4473    1.2151    0.0000 C.3     1  UNL1        0.0260
     18 C          12.5393    1.7254    0.0000 C.3     1  UNL1       -0.0211
     19 C          16.1267    1.5095    0.0000 C.3     1  UNL1       -0.0197
     20 C          14.3076   -0.2882    0.0000 C.3     1  UNL1        0.1378
     21 C          14.3353    2.7532    0.0000 C.3     1  UNL1       -0.0203
     22 C          13.4435    0.2151    0.0000 C.3     1  UNL1        0.0987
     23 C          16.1205   -0.0999    0.0000 C.3     1  UNL1        0.0289
     24 C          12.5353    2.7671    0.0000 C.3     1  UNL1       -0.0328
     25 C          16.7073    0.7025    0.0000 C.3     1  UNL1       -0.0401
     26 C          13.4393    3.2844    0.0000 C.3     1  UNL1       -0.0469
     27 C          15.1717   -0.7916    0.0000 C.3     1  UNL1       -0.0527
     28 C          11.6103    1.1649    0.0000 C.3     1  UNL1       -0.0446
     29 C          11.6020    3.3204    0.0000 C.3     1  UNL1       -0.0232
     30 C          12.5431    0.7255    0.0000 C.3     1  UNL1       -0.0589
     31 C          10.6644    1.6965    0.0000 C.3     1  UNL1       -0.0260
     32 C          16.4275   -1.0517    0.0000 C.2     1  UNL1        0.1341
     33 C          10.6603    2.7815    0.0000 C.3     1  UNL1        0.0620
     34 C          17.4052   -1.2616    0.0000 C.3     1  UNL1       -0.0058
     35 C          13.4358   -1.7849    0.0000 C.2     1  UNL1        0.3103
     36 C          13.4319   -2.7849    0.0000 C.3     1  UNL1        0.0534
     37 C           8.9282    2.7815    0.0000 C.3     1  UNL1        0.1624
     38 C          12.5640   -3.2815    0.0000 C.3     1  UNL1       -0.0432
     39 C           8.9282    1.7815    0.0000 C.3     1  UNL1        0.0272
     40 C          14.2960   -3.2882    0.0000 C.3     1  UNL1       -0.0523
     41 C           8.0622    1.2815    0.0000 C.3     1  UNL1        0.0915
     42 C           7.1962    2.7815    0.0000 C.3     1  UNL1        0.0875
     43 C           7.1962    1.7815    0.0000 C.3     1  UNL1        0.1138
     44 C          12.5601   -4.2815    0.0000 C.3     1  UNL1       -0.0645
     45 C           6.3301    3.2815    0.0000 C.3     1  UNL1       -0.0361
     46 C           5.4641    1.7815    0.0000 C.3     1  UNL1        0.1883
     47 C           8.9282   -0.2185    0.0000 C.3     1  UNL1        0.0369
     48 C           4.5981    1.2815    0.0000 C.3     1  UNL1        0.1344
     49 C           3.7320    1.7815    0.0000 C.3     1  UNL1        0.1170
     50 C           4.5981    3.2815    0.0000 C.3     1  UNL1        0.0873
     51 C           3.7320    2.7815    0.0000 C.3     1  UNL1        0.1097
     52 C           4.5981    4.2815    0.0000 C.3     1  UNL1       -0.0361
     53 C           2.0000    1.7815    0.0000 C.3     1  UNL1        0.0370
     54 H          14.1818    0.7873    0.0000 H       1  UNL1        0.0361
     55 H          16.6653    1.8167    0.0000 H       1  UNL1        0.0294
     56 H          15.8779    2.0774    0.0000 H       1  UNL1        0.0294
     57 H          13.7694   -0.5962    0.0000 H       1  UNL1        0.0767
     58 H          14.9440    2.6354    0.0000 H       1  UNL1        0.0294
     59 H          14.5556    3.3328    0.0000 H       1  UNL1        0.0294
     60 H          12.9077    0.5272    0.0000 H       1  UNL1        0.0634
     61 H          16.7327   -0.1985    0.0000 H       1  UNL1        0.0385
     62 H          12.5418    3.6170    0.0000 H       1  UNL1        0.0307
     63 H          17.1665    0.2860    0.0000 H       1  UNL1        0.0273
     64 H          17.1697    1.1155    0.0000 H       1  UNL1        0.0273
     65 H          13.8421    3.7558    0.0000 H       1  UNL1        0.0269
     66 H          13.0439    3.7619    0.0000 H       1  UNL1        0.0269
     67 H          14.5517   -0.7892    0.0000 H       1  UNL1        0.0237
     68 H          15.1693   -1.4116    0.0000 H       1  UNL1        0.0237
     69 H          15.7916   -0.7940    0.0000 H       1  UNL1        0.0237
     70 H          11.2185    0.6844    0.0000 H       1  UNL1        0.0272
     71 H          12.0167    0.6967    0.0000 H       1  UNL1        0.0272
     72 H          12.0048    3.7917    0.0000 H       1  UNL1        0.0293
     73 H          11.2065    3.7979    0.0000 H       1  UNL1        0.0293
     74 H          11.9231    0.7231    0.0000 H       1  UNL1        0.0235
     75 H          12.5455    0.1055    0.0000 H       1  UNL1        0.0235
     76 H          13.1631    0.7278    0.0000 H       1  UNL1        0.0235
     77 H          10.0532    1.8003    0.0000 H       1  UNL1        0.0290
     78 H          10.4576    1.1120    0.0000 H       1  UNL1        0.0290
     79 H          10.6614    3.4015    0.0000 H       1  UNL1        0.0597
     80 H          12.0398    0.0305    0.0000 H       1  UNL1        0.2100
     81 H          17.2751   -1.8678    0.0000 H       1  UNL1        0.0306
     82 H          18.0114   -1.3918    0.0000 H       1  UNL1        0.0306
     83 H          17.5354   -0.6555    0.0000 H       1  UNL1        0.0306
     84 H          13.9700   -2.4770    0.0000 H       1  UNL1        0.0410
     85 H           9.4651    2.4715    0.0000 H       1  UNL1        0.0910
     86 H          12.3542   -2.6981    0.0000 H       1  UNL1        0.0270
     87 H          11.9530   -3.3868    0.0000 H       1  UNL1        0.0270
     88 H           9.1403    1.1989    0.0000 H       1  UNL1        0.0340
     89 H           9.5388    1.8892    0.0000 H       1  UNL1        0.0340
     90 H          13.9839   -3.8239    0.0000 H       1  UNL1        0.0238
     91 H          14.8317   -3.6003    0.0000 H       1  UNL1        0.0238
     92 H          14.6081   -2.7525    0.0000 H       1  UNL1        0.0238
     93 H           7.5252    0.9715    0.0000 H       1  UNL1        0.0624
     94 H           7.1962    3.4015    0.0000 H       1  UNL1        0.0621
     95 H           6.6592    2.0915    0.0000 H       1  UNL1        0.0649
     96 H          11.9401   -4.2791    0.0000 H       1  UNL1        0.0230
     97 H          12.5577   -4.9015    0.0000 H       1  UNL1        0.0230
     98 H          13.1801   -4.2839    0.0000 H       1  UNL1        0.0230
     99 H           6.6401    3.8185    0.0000 H       1  UNL1        0.0255
    100 H           5.7932    3.5915    0.0000 H       1  UNL1        0.0255
    101 H           6.0201    2.7446    0.0000 H       1  UNL1        0.0255
    102 H           5.4641    1.1615    0.0000 H       1  UNL1        0.0938
    103 H           8.6182   -0.7554    0.0000 H       1  UNL1        0.0524
    104 H           9.4651   -0.5285    0.0000 H       1  UNL1        0.0524
    105 H           9.2382    0.3185    0.0000 H       1  UNL1        0.0524
    106 H           4.0611    0.9715    0.0000 H       1  UNL1        0.0671
    107 H           3.1951    2.0915    0.0000 H       1  UNL1        0.0650
    108 H           5.1350    3.5915    0.0000 H       1  UNL1        0.0621
    109 H           3.7320    3.4015    0.0000 H       1  UNL1        0.0646
    110 H           4.0611   -0.0285    0.0000 H       1  UNL1        0.2101
    111 H           5.2181    4.2815    0.0000 H       1  UNL1        0.0255
    112 H           4.5981    4.9015    0.0000 H       1  UNL1        0.0255
    113 H           3.9781    4.2815    0.0000 H       1  UNL1        0.0255
    114 H           2.8660    3.9015    0.0000 H       1  UNL1        0.2100
    115 H           2.3100    2.3185    0.0000 H       1  UNL1        0.0524
    116 H           1.4631    2.0915    0.0000 H       1  UNL1        0.0524
    117 H           1.6900    1.2446    0.0000 H       1  UNL1        0.0524
@<TRIPOS>BOND
     1    14     1    1
     2    15     1    1
     3    20     2    1
     4     2    35    1
     5    22     3    1
     6     3    80    1
     7    33     4    1
     8    37     4    1
     9     5    32    2
    10     6    35    2
    11     7    37    1
    12     7    42    1
    13    41     8    1
    14     8    47    1
    15    43     9    1
    16    46     9    1
    17    10    46    1
    18    10    50    1
    19    48    11    1
    20    11   110    1
    21    49    12    1
    22    12    53    1
    23    51    13    1
    24    13   114    1
    25    14    15    1
    26    14    16    1
    27    14    19    1
    28    15    17    1
    29    15    21    1
    30    16    20    1
    31    16    23    1
    32    16    27    1
    33    17    18    1
    34    17    22    1
    35    17    54    1
    36    18    24    1
    37    18    28    1
    38    18    30    1
    39    19    25    1
    40    19    55    1
    41    19    56    1
    42    20    22    1
    43    20    57    1
    44    21    26    1
    45    21    58    1
    46    21    59    1
    47    22    60    1
    48    23    25    1
    49    23    32    1
    50    23    61    1
    51    24    26    1
    52    24    29    1
    53    24    62    1
    54    25    63    1
    55    25    64    1
    56    26    65    1
    57    26    66    1
    58    27    67    1
    59    27    68    1
    60    27    69    1
    61    28    31    1
    62    28    70    1
    63    28    71    1
    64    29    33    1
    65    29    72    1
    66    29    73    1
    67    30    74    1
    68    30    75    1
    69    30    76    1
    70    31    33    1
    71    31    77    1
    72    31    78    1
    73    32    34    1
    74    33    79    1
    75    34    81    1
    76    34    82    1
    77    34    83    1
    78    35    36    1
    79    36    38    1
    80    36    40    1
    81    36    84    1
    82    37    39    1
    83    37    85    1
    84    38    44    1
    85    38    86    1
    86    38    87    1
    87    39    41    1
    88    39    88    1
    89    39    89    1
    90    40    90    1
    91    40    91    1
    92    40    92    1
    93    41    43    1
    94    41    93    1
    95    42    43    1
    96    42    45    1
    97    42    94    1
    98    43    95    1
    99    44    96    1
   100    44    97    1
   101    44    98    1
   102    45    99    1
   103    45   100    1
   104    45   101    1
   105    46    48    1
   106    46   102    1
   107    47   103    1
   108    47   104    1
   109    47   105    1
   110    48    49    1
   111    48   106    1
   112    49    51    1
   113    49   107    1
   114    50    51    1
   115    50    52    1
   116    50   108    1
   117    51   109    1
   118    52   111    1
   119    52   112    1
   120    52   113    1
   121    53   115    1
   122    53   116    1
   123    53   117    1
