@<TRIPOS>MOLECULE
IMPHY004496
 62 64 0 0 0
SMALL
GASTEIGER

@<TRIPOS>ATOM
      1 CL          6.2716    0.2132    0.0000 Cl      1  UNL1       -0.0883
      2 O           8.1206   -1.9990    0.0000 O.3     1  UNL1       -0.3837
      3 O           5.6190    1.6758    0.0000 O.3     1  UNL1       -0.4610
      4 O           4.9216    3.2613    0.0000 O.2     1  UNL1       -0.2453
      5 N           2.6258   -0.4615    0.0000 N.3     1  UNL1       -0.3072
      6 C           3.4918   -0.9615    0.0000 C.3     1  UNL1        0.0228
      7 C           4.3008   -1.5493    0.0000 C.3     1  UNL1       -0.0167
      8 C           2.6828   -1.5493    0.0000 C.3     1  UNL1       -0.0344
      9 C           4.3578   -0.4615    0.0000 C.3     1  UNL1       -0.0343
     10 C           3.9918   -2.5004    0.0000 C.3     1  UNL1       -0.0480
     11 C           2.9918   -2.5004    0.0000 C.3     1  UNL1       -0.0511
     12 C           4.9266   -2.3293    0.0000 C.3     1  UNL1       -0.0211
     13 C           2.6258    0.5385    0.0000 C.3     1  UNL1        0.0116
     14 C           4.3578    0.5385    0.0000 C.3     1  UNL1       -0.0500
     15 C           3.4918    1.0385    0.0000 C.3     1  UNL1       -0.0372
     16 C           2.0000    1.3184    0.0000 C.3     1  UNL1       -0.0185
     17 C           4.5640   -3.2613    0.0000 C.3     1  UNL1       -0.0586
     18 C           5.9150   -2.1774    0.0000 C.2     1  UNL1       -0.0821
     19 C           2.9032    1.9737    0.0000 C.2     1  UNL1       -0.0729
     20 C           6.5065   -1.3710    0.0000 C.2     1  UNL1       -0.0557
     21 C           7.4948   -1.2191    0.0000 C.3     1  UNL1        0.0929
     22 C           3.8972    1.8646    0.0000 C.2     1  UNL1        0.0296
     23 C           4.0720    0.7280    0.0000 C.3     1  UNL1       -0.0332
     24 C           7.8574   -0.2871    0.0000 C.2     1  UNL1       -0.0377
     25 C           4.8126    2.2672    0.0000 C.2     1  UNL1        0.3346
     26 C           7.2316    0.4929    0.0000 C.2     1  UNL1        0.0205
     27 C           7.3407    1.4869    0.0000 C.3     1  UNL1        0.0172
     28 C           6.5343    2.0784    0.0000 C.3     1  UNL1        0.0975
     29 H           4.8873   -0.9341    0.0000 H       1  UNL1        0.0324
     30 H           2.3728   -1.0124    0.0000 H       1  UNL1        0.0283
     31 H           2.1164   -1.8015    0.0000 H       1  UNL1        0.0283
     32 H           4.5699   -1.0442    0.0000 H       1  UNL1        0.0283
     33 H           4.9684   -0.3539    0.0000 H       1  UNL1        0.0283
     34 H           3.9270   -3.1170    0.0000 H       1  UNL1        0.0269
     35 H           4.5983   -2.6293    0.0000 H       1  UNL1        0.0269
     36 H           2.3854   -2.6293    0.0000 H       1  UNL1        0.0266
     37 H           3.0566   -3.1170    0.0000 H       1  UNL1        0.0266
     38 H           2.0889   -0.7715    0.0000 H       1  UNL1        0.1227
     39 H           5.3146   -2.8129    0.0000 H       1  UNL1        0.0344
     40 H           1.8239    0.2565    0.0000 H       1  UNL1        0.0463
     41 H           4.9684    0.4308    0.0000 H       1  UNL1        0.0266
     42 H           4.5699    1.1211    0.0000 H       1  UNL1        0.0266
     43 H           3.8903    1.5134    0.0000 H       1  UNL1        0.0280
     44 H           3.0933    1.5134    0.0000 H       1  UNL1        0.0280
     45 H           1.6279    1.8144    0.0000 H       1  UNL1        0.0323
     46 H           1.5102    0.9383    0.0000 H       1  UNL1        0.0323
     47 H           3.9862   -3.0364    0.0000 H       1  UNL1        0.0235
     48 H           4.3392   -3.8391    0.0000 H       1  UNL1        0.0235
     49 H           5.1418   -3.4861    0.0000 H       1  UNL1        0.0235
     50 H           6.2366   -2.7075    0.0000 H       1  UNL1        0.0573
     51 H           2.8300    2.5893    0.0000 H       1  UNL1        0.0577
     52 H           6.1849   -0.8409    0.0000 H       1  UNL1        0.0598
     53 H           8.1076   -1.1248    0.0000 H       1  UNL1        0.0683
     54 H           3.4592    0.6338    0.0000 H       1  UNL1        0.0280
     55 H           4.1662    0.1152    0.0000 H       1  UNL1        0.0280
     56 H           4.6848    0.8222    0.0000 H       1  UNL1        0.0280
     57 H           8.4702   -0.1929    0.0000 H       1  UNL1        0.0612
     58 H           8.7334   -1.9048    0.0000 H       1  UNL1        0.2106
     59 H           7.9359    1.3133    0.0000 H       1  UNL1        0.0355
     60 H           7.6150    2.0429    0.0000 H       1  UNL1        0.0355
     61 H           6.9823    2.5070    0.0000 H       1  UNL1        0.0701
     62 H           6.1900    2.5939    0.0000 H       1  UNL1        0.0701
@<TRIPOS>BOND
     1     1    26    1
     2    21     2    1
     3     2    58    1
     4     3    25    1
     5     3    28    1
     6     4    25    2
     7     5     6    1
     8     5    13    1
     9     5    38    1
    10     6     7    1
    11     6     8    1
    12     6     9    1
    13     7    10    1
    14     7    12    1
    15     7    29    1
    16     8    11    1
    17     8    30    1
    18     8    31    1
    19     9    14    1
    20     9    32    1
    21     9    33    1
    22    10    11    1
    23    10    34    1
    24    10    35    1
    25    11    36    1
    26    11    37    1
    27    12    17    1
    28    12    18    1
    29    12    39    1
    30    13    15    1
    31    13    16    1
    32    13    40    1
    33    14    15    1
    34    14    41    1
    35    14    42    1
    36    15    43    1
    37    15    44    1
    38    16    19    1
    39    16    45    1
    40    16    46    1
    41    17    47    1
    42    17    48    1
    43    17    49    1
    44    18    20    2
    45    18    50    1
    46    19    22    2
    47    19    51    1
    48    20    21    1
    49    20    52    1
    50    21    24    1
    51    21    53    1
    52    22    23    1
    53    22    25    1
    54    23    54    1
    55    23    55    1
    56    23    56    1
    57    24    26    2
    58    24    57    1
    59    26    27    1
    60    27    28    1
    61    27    59    1
    62    27    60    1
    63    28    61    1
    64    28    62    1
