@<TRIPOS>MOLECULE
IMPHY003561
 59 62 0 0 0
SMALL
GASTEIGER

@<TRIPOS>ATOM
      1 O           8.0712   -0.5021    0.0000 O.3     1  UNL1       -0.3582
      2 O           3.7320    2.1098    0.0000 O.3     1  UNL1       -0.4610
      3 O           8.9942    2.0856    0.0000 O.2     1  UNL1       -0.2970
      4 O           8.2622   -2.9920    0.0000 O.2     1  UNL1       -0.4965
      5 O           2.8602    0.6131    0.0000 O.2     1  UNL1       -0.2512
      6 C           6.3961    0.5856    0.0000 C.3     1  UNL1        0.0016
      7 C           7.2622    0.0856    0.0000 C.3     1  UNL1        0.0857
      8 C           6.3961    1.5856    0.0000 C.3     1  UNL1       -0.0178
      9 C           5.5022    2.1203    0.0000 C.3     1  UNL1        0.0060
     10 C           5.5022    0.0510    0.0000 C.3     1  UNL1       -0.0413
     11 C           8.1282    0.5856    0.0000 C.3     1  UNL1        0.0443
     12 C           6.4532   -0.5021    0.0000 C.3     1  UNL1       -0.0195
     13 C           7.2622    2.0856    0.0000 C.3     1  UNL1        0.0102
     14 C           4.5961    1.6064    0.0000 C.3     1  UNL1        0.1084
     15 C           4.5961    0.5648    0.0000 C.3     1  UNL1       -0.0146
     16 C           5.8963   -0.2805    0.0000 C.3     1  UNL1       -0.0566
     17 C           7.7622   -1.4532    0.0000 C.3     1  UNL1        0.1252
     18 C           6.7622   -1.4532    0.0000 C.3     1  UNL1       -0.0141
     19 C           8.1282    1.5856    0.0000 C.2     1  UNL1        0.1392
     20 C           5.0122    2.9920    0.0000 C.3     1  UNL1       -0.0562
     21 C           6.0122    2.9805    0.0000 C.3     1  UNL1       -0.0562
     22 C           8.9942    0.0856    0.0000 C.3     1  UNL1       -0.0530
     23 C           7.4532   -2.4043    0.0000 C.3     1  UNL1        0.1213
     24 C           8.7622   -1.4532    0.0000 C.2     1  UNL1       -0.0150
     25 C           9.0712   -2.4043    0.0000 C.2     1  UNL1        0.0835
     26 C           2.8641    1.6131    0.0000 C.2     1  UNL1        0.3042
     27 C           2.0000    2.1165    0.0000 C.3     1  UNL1        0.0332
     28 H           6.4009    2.2056    0.0000 H       1  UNL1        0.0317
     29 H           5.1086   -0.4280    0.0000 H       1  UNL1        0.0273
     30 H           5.9068   -0.4188    0.0000 H       1  UNL1        0.0273
     31 H           8.1282   -0.0344    0.0000 H       1  UNL1        0.0403
     32 H           6.1432    0.0348    0.0000 H       1  UNL1        0.0294
     33 H           5.8868   -0.7543    0.0000 H       1  UNL1        0.0294
     34 H           7.6607    2.5606    0.0000 H       1  UNL1        0.0345
     35 H           6.8636    2.5606    0.0000 H       1  UNL1        0.0345
     36 H           4.5997    2.2264    0.0000 H       1  UNL1        0.0739
     37 H           3.9853    0.6709    0.0000 H       1  UNL1        0.0301
     38 H           4.3871   -0.0189    0.0000 H       1  UNL1        0.0301
     39 H           5.3593    0.0294    0.0000 H       1  UNL1        0.0236
     40 H           5.5864   -0.8175    0.0000 H       1  UNL1        0.0236
     41 H           6.4333   -0.5904    0.0000 H       1  UNL1        0.0236
     42 H           6.1557   -1.5821    0.0000 H       1  UNL1        0.0298
     43 H           6.8270   -2.0698    0.0000 H       1  UNL1        0.0298
     44 H           6.5455    2.6643    0.0000 H       1  UNL1        0.0236
     45 H           6.3284    3.5138    0.0000 H       1  UNL1        0.0236
     46 H           5.4789    3.2967    0.0000 H       1  UNL1        0.0236
     47 H           5.5527    3.2958    0.0000 H       1  UNL1        0.0236
     48 H           4.7085    3.5325    0.0000 H       1  UNL1        0.0236
     49 H           4.4718    2.6883    0.0000 H       1  UNL1        0.0236
     50 H           8.6842   -0.4513    0.0000 H       1  UNL1        0.0237
     51 H           9.5312   -0.2244    0.0000 H       1  UNL1        0.0237
     52 H           9.3042    0.6226    0.0000 H       1  UNL1        0.0237
     53 H           6.8868   -2.1521    0.0000 H       1  UNL1        0.0729
     54 H           7.1432   -2.9412    0.0000 H       1  UNL1        0.0729
     55 H           9.1266   -0.9516    0.0000 H       1  UNL1        0.0632
     56 H           9.6608   -2.5958    0.0000 H       1  UNL1        0.1021
     57 H           2.3121    2.6522    0.0000 H       1  UNL1        0.0342
     58 H           1.4643    2.4285    0.0000 H       1  UNL1        0.0342
     59 H           1.6879    1.5807    0.0000 H       1  UNL1        0.0342
@<TRIPOS>BOND
     1     1     7    1
     2     1    17    1
     3     2    14    1
     4     2    26    1
     5     3    19    2
     6     4    23    1
     7     4    25    1
     8     5    26    2
     9     6     7    1
    10     6     8    1
    11     6    10    1
    12     6    16    1
    13     7    11    1
    14     7    12    1
    15     8     9    1
    16     8    13    1
    17     8    28    1
    18     9    14    1
    19     9    20    1
    20     9    21    1
    21    10    15    1
    22    10    29    1
    23    10    30    1
    24    11    19    1
    25    11    22    1
    26    11    31    1
    27    12    18    1
    28    12    32    1
    29    12    33    1
    30    13    19    1
    31    13    34    1
    32    13    35    1
    33    14    15    1
    34    14    36    1
    35    15    37    1
    36    15    38    1
    37    16    39    1
    38    16    40    1
    39    16    41    1
    40    17    18    1
    41    17    23    1
    42    17    24    1
    43    18    42    1
    44    18    43    1
    45    20    47    1
    46    20    48    1
    47    20    49    1
    48    21    44    1
    49    21    45    1
    50    21    46    1
    51    22    50    1
    52    22    51    1
    53    22    52    1
    54    23    53    1
    55    23    54    1
    56    24    25    2
    57    24    55    1
    58    25    56    1
    59    26    27    1
    60    27    57    1
    61    27    58    1
    62    27    59    1
