@<TRIPOS>MOLECULE
IMPHY005113
 59 62 0 0 0
SMALL
GASTEIGER

@<TRIPOS>ATOM
      1 O           3.9061   -0.1897    0.0000 O.3     1  UNL1       -0.4811
      2 O           7.4260   -0.1897    0.0000 O.2     1  UNL1       -0.4504
      3 O           5.6660    2.8450    0.0000 O.3     1  UNL1       -0.5052
      4 O           9.1962    1.8692    0.0000 O.3     1  UNL1       -0.4883
      5 O           7.4144    2.8796    0.0000 O.2     1  UNL1       -0.2830
      6 O          10.0525   -2.6825    0.0000 O.3     1  UNL1       -0.5033
      7 O          11.7884   -1.6892    0.0000 O.3     1  UNL1       -0.5033
      8 C           3.0000    0.3242    0.0000 C.3     1  UNL1        0.1235
      9 C           4.8000    0.3450    0.0000 C.ar    1  UNL1        0.1393
     10 C           5.6660   -0.1550    0.0000 C.ar    1  UNL1        0.0417
     11 C           4.8000    1.3450    0.0000 C.ar    1  UNL1        0.0591
     12 C           6.5320    0.3450    0.0000 C.ar    1  UNL1        0.1500
     13 C           6.5320    1.3450    0.0000 C.ar    1  UNL1        0.1100
     14 C           3.0000    1.3658    0.0000 C.2     1  UNL1       -0.0408
     15 C           5.6660    1.8450    0.0000 C.ar    1  UNL1        0.1419
     16 C           3.9061    1.8797    0.0000 C.2     1  UNL1       -0.0478
     17 C           5.6660   -1.1550    0.0000 C.3     1  UNL1       -0.0022
     18 C           2.0000    0.3203    0.0000 C.3     1  UNL1       -0.0215
     19 C           2.5033   -0.5438    0.0000 C.3     1  UNL1       -0.0215
     20 C           7.4260    1.8797    0.0000 C.ar    1  UNL1        0.2381
     21 C           8.3321    0.3242    0.0000 C.ar    1  UNL1        0.1809
     22 C           8.3321    1.3658    0.0000 C.ar    1  UNL1        0.2107
     23 C           4.8000   -1.6550    0.0000 C.2     1  UNL1       -0.0807
     24 C           9.1962   -0.1792    0.0000 C.ar    1  UNL1        0.0247
     25 C           4.8000   -2.6550    0.0000 C.2     1  UNL1       -0.0793
     26 C           9.1923   -1.1791    0.0000 C.ar    1  UNL1       -0.0057
     27 C          10.0641    0.3175    0.0000 C.ar    1  UNL1       -0.0473
     28 C           3.9340   -3.1550    0.0000 C.3     1  UNL1       -0.0440
     29 C           5.6660   -3.1550    0.0000 C.3     1  UNL1       -0.0440
     30 C          10.0564   -1.6825    0.0000 C.ar    1  UNL1        0.1589
     31 C          10.9282   -0.1858    0.0000 C.ar    1  UNL1       -0.0159
     32 C           9.1923    2.8691    0.0000 C.3     1  UNL1        0.0791
     33 C          10.9243   -1.1858    0.0000 C.ar    1  UNL1        0.1583
     34 H           2.4643    1.6779    0.0000 H       1  UNL1        0.0611
     35 H           3.9132    2.4996    0.0000 H       1  UNL1        0.0624
     36 H           5.8781   -1.7376    0.0000 H       1  UNL1        0.0358
     37 H           6.2766   -1.0473    0.0000 H       1  UNL1        0.0358
     38 H           1.9976    0.9403    0.0000 H       1  UNL1        0.0271
     39 H           1.3800    0.3179    0.0000 H       1  UNL1        0.0271
     40 H           2.0024   -0.2997    0.0000 H       1  UNL1        0.0271
     41 H           1.9652   -0.2358    0.0000 H       1  UNL1        0.0271
     42 H           2.1954   -1.0819    0.0000 H       1  UNL1        0.0271
     43 H           3.0415   -0.8517    0.0000 H       1  UNL1        0.0271
     44 H           4.2631   -1.3450    0.0000 H       1  UNL1        0.0575
     45 H           5.1291    3.1550    0.0000 H       1  UNL1        0.2922
     46 H           8.6542   -1.4871    0.0000 H       1  UNL1        0.0662
     47 H          10.0665    0.9375    0.0000 H       1  UNL1        0.0626
     48 H           3.6240   -2.6181    0.0000 H       1  UNL1        0.0274
     49 H           5.3560   -3.6919    0.0000 H       1  UNL1        0.0274
     50 H           6.2030   -3.4650    0.0000 H       1  UNL1        0.0274
     51 H           5.9760   -2.6181    0.0000 H       1  UNL1        0.0274
     52 H           3.3970   -3.4650    0.0000 H       1  UNL1        0.0274
     53 H           4.2440   -3.6919    0.0000 H       1  UNL1        0.0274
     54 H          11.4663    0.1221    0.0000 H       1  UNL1        0.0655
     55 H           9.8123    2.8715    0.0000 H       1  UNL1        0.0660
     56 H           9.1899    3.4891    0.0000 H       1  UNL1        0.0660
     57 H           8.5723    2.8668    0.0000 H       1  UNL1        0.0660
     58 H          10.5883   -2.9945    0.0000 H       1  UNL1        0.2923
     59 H          12.3266   -1.3812    0.0000 H       1  UNL1        0.2923
@<TRIPOS>BOND
     1     1     8    1
     2     1     9    1
     3     2    12   ar
     4     2    21   ar
     5     3    15    1
     6     3    45    1
     7     4    22    1
     8     4    32    1
     9     5    20    2
    10     6    30    1
    11     6    58    1
    12     7    33    1
    13     7    59    1
    14     8    14    1
    15     8    18    1
    16     8    19    1
    17     9    10   ar
    18     9    11   ar
    19    10    12   ar
    20    10    17    1
    21    11    15   ar
    22    11    16    1
    23    12    13   ar
    24    13    15   ar
    25    13    20   ar
    26    14    16    2
    27    14    34    1
    28    16    35    1
    29    17    23    1
    30    17    36    1
    31    17    37    1
    32    18    38    1
    33    18    39    1
    34    18    40    1
    35    19    41    1
    36    19    42    1
    37    19    43    1
    38    20    22   ar
    39    21    22   ar
    40    21    24    1
    41    23    25    2
    42    23    44    1
    43    24    26   ar
    44    24    27   ar
    45    25    28    1
    46    25    29    1
    47    26    30   ar
    48    26    46    1
    49    27    31   ar
    50    27    47    1
    51    28    48    1
    52    28    52    1
    53    28    53    1
    54    29    49    1
    55    29    50    1
    56    29    51    1
    57    30    33   ar
    58    31    33   ar
    59    31    54    1
    60    32    55    1
    61    32    56    1
    62    32    57    1
