@<TRIPOS>MOLECULE
IMPHY017427
 36 37 0 0 0
SMALL
GASTEIGER

@<TRIPOS>ATOM
      1 C           3.7320   -0.2500    0.0000 C.3     1  UNL1       -0.0310
      2 C           4.5981    0.2500    0.0000 C.3     1  UNL1       -0.0310
      3 C           3.7320   -1.2500    0.0000 C.2     1  UNL1       -0.0832
      4 C           4.5981    1.2500    0.0000 C.2     1  UNL1       -0.0832
      5 C           2.8660   -1.7500    0.0000 C.2     1  UNL1       -0.0585
      6 C           5.4641    1.7500    0.0000 C.2     1  UNL1       -0.0585
      7 C           2.8660   -2.7500    0.0000 C.ar    1  UNL1       -0.0253
      8 C           5.4641    2.7500    0.0000 C.ar    1  UNL1       -0.0253
      9 C           3.7320   -3.2500    0.0000 C.ar    1  UNL1       -0.0546
     10 C           6.3301    3.2500    0.0000 C.ar    1  UNL1       -0.0546
     11 C           2.0000   -3.2500    0.0000 C.ar    1  UNL1       -0.0546
     12 C           4.5981    3.2500    0.0000 C.ar    1  UNL1       -0.0546
     13 C           3.7320   -4.2500    0.0000 C.ar    1  UNL1       -0.0612
     14 C           6.3301    4.2500    0.0000 C.ar    1  UNL1       -0.0612
     15 C           2.0000   -4.2500    0.0000 C.ar    1  UNL1       -0.0612
     16 C           4.5981    4.2500    0.0000 C.ar    1  UNL1       -0.0612
     17 C           2.8660   -4.7500    0.0000 C.ar    1  UNL1       -0.0617
     18 C           5.4641    4.7500    0.0000 C.ar    1  UNL1       -0.0617
     19 H           3.5200    0.3326    0.0000 H       1  UNL1        0.0310
     20 H           3.1215   -0.3577    0.0000 H       1  UNL1        0.0310
     21 H           4.8101   -0.3326    0.0000 H       1  UNL1        0.0310
     22 H           5.2087    0.3577    0.0000 H       1  UNL1        0.0310
     23 H           4.2690   -1.5600    0.0000 H       1  UNL1        0.0572
     24 H           4.0611    1.5600    0.0000 H       1  UNL1        0.0572
     25 H           2.3291   -1.4400    0.0000 H       1  UNL1        0.0620
     26 H           6.0010    1.4400    0.0000 H       1  UNL1        0.0620
     27 H           4.2690   -2.9400    0.0000 H       1  UNL1        0.0623
     28 H           6.8671    2.9400    0.0000 H       1  UNL1        0.0623
     29 H           1.4631   -2.9400    0.0000 H       1  UNL1        0.0623
     30 H           4.0611    2.9400    0.0000 H       1  UNL1        0.0623
     31 H           4.2690   -4.5600    0.0000 H       1  UNL1        0.0618
     32 H           6.8671    4.5600    0.0000 H       1  UNL1        0.0618
     33 H           1.4631   -4.5600    0.0000 H       1  UNL1        0.0618
     34 H           4.0611    4.5600    0.0000 H       1  UNL1        0.0618
     35 H           2.8660   -5.3700    0.0000 H       1  UNL1        0.0618
     36 H           5.4641    5.3700    0.0000 H       1  UNL1        0.0618
@<TRIPOS>BOND
     1     1     2    1
     2     1     3    1
     3     1    19    1
     4     1    20    1
     5     2     4    1
     6     2    21    1
     7     2    22    1
     8     3     5    2
     9     3    23    1
    10     4     6    2
    11     4    24    1
    12     5     7    1
    13     5    25    1
    14     6     8    1
    15     6    26    1
    16     7     9   ar
    17     7    11   ar
    18     8    10   ar
    19     8    12   ar
    20     9    13   ar
    21     9    27    1
    22    10    14   ar
    23    10    28    1
    24    11    15   ar
    25    11    29    1
    26    12    16   ar
    27    12    30    1
    28    13    17   ar
    29    13    31    1
    30    14    18   ar
    31    14    32    1
    32    15    17   ar
    33    15    33    1
    34    16    18   ar
    35    16    34    1
    36    17    35    1
    37    18    36    1
