@<TRIPOS>MOLECULE
IMPHY007235
 44 47 0 0 0
SMALL
GASTEIGER

@<TRIPOS>ATOM
      1 O           9.1857    2.1128    0.0000 O.3     1  UNL1       -0.3912
      2 O           2.5357   -2.1948    0.0000 O.3     1  UNL1       -0.5068
      3 C           7.9288    0.8575    0.0000 C.3     1  UNL1       -0.0030
      4 C           7.9288   -0.1425    0.0000 C.3     1  UNL1       -0.0298
      5 C           7.0628   -0.6425    0.0000 C.3     1  UNL1       -0.0305
      6 C           6.1968   -0.1425    0.0000 C.3     1  UNL1       -0.0125
      7 C           8.8750    1.1623    0.0000 C.3     1  UNL1        0.0609
      8 C           7.0628    1.3575    0.0000 C.3     1  UNL1       -0.0445
      9 C           8.8750   -0.4472    0.0000 C.3     1  UNL1       -0.0470
     10 C           6.1968    0.8575    0.0000 C.3     1  UNL1       -0.0454
     11 C           9.4586    0.3575    0.0000 C.3     1  UNL1       -0.0261
     12 C           7.0789   -1.6840    0.0000 C.3     1  UNL1       -0.0454
     13 C           7.9288    1.8575    0.0000 C.3     1  UNL1       -0.0569
     14 C           5.2868   -0.6493    0.0000 C.ar    1  UNL1       -0.0406
     15 C           6.1808   -2.2117    0.0000 C.3     1  UNL1       -0.0270
     16 C           5.2787   -1.6909    0.0000 C.ar    1  UNL1       -0.0405
     17 C           4.3599   -0.0852    0.0000 C.ar    1  UNL1       -0.0546
     18 C           4.3433   -2.2406    0.0000 C.ar    1  UNL1       -0.0167
     19 C           3.4120   -0.6132    0.0000 C.ar    1  UNL1       -0.0199
     20 C           3.4037   -1.6981    0.0000 C.ar    1  UNL1        0.1171
     21 H           8.0188   -0.9877    0.0000 H       1  UNL1        0.0310
     22 H           7.8022   -1.0618    0.0000 H       1  UNL1        0.0310
     23 H           6.9329    0.2825    0.0000 H       1  UNL1        0.0352
     24 H           9.4875    1.2585    0.0000 H       1  UNL1        0.0599
     25 H           7.4613    1.8325    0.0000 H       1  UNL1        0.0272
     26 H           6.6643    1.8325    0.0000 H       1  UNL1        0.0272
     27 H           8.6240   -1.0141    0.0000 H       1  UNL1        0.0269
     28 H           9.4124   -0.7564    0.0000 H       1  UNL1        0.0269
     29 H           5.9847    1.4401    0.0000 H       1  UNL1        0.0271
     30 H           5.5862    0.7499    0.0000 H       1  UNL1        0.0271
     31 H           9.9195   -0.0572    0.0000 H       1  UNL1        0.0290
     32 H           9.9195    0.7723    0.0000 H       1  UNL1        0.0290
     33 H           7.2969   -2.2644    0.0000 H       1  UNL1        0.0271
     34 H           7.6880   -1.5685    0.0000 H       1  UNL1        0.0271
     35 H           8.5488    1.8575    0.0000 H       1  UNL1        0.0236
     36 H           7.9288    2.4775    0.0000 H       1  UNL1        0.0236
     37 H           7.3088    1.8575    0.0000 H       1  UNL1        0.0236
     38 H           5.7835   -2.6877    0.0000 H       1  UNL1        0.0313
     39 H           6.5818   -2.6846    0.0000 H       1  UNL1        0.0313
     40 H           9.7924    2.2406    0.0000 H       1  UNL1        0.2098
     41 H           4.3719    0.5347    0.0000 H       1  UNL1        0.0622
     42 H           4.3457   -2.8606    0.0000 H       1  UNL1        0.0657
     43 H           2.8787   -0.2970    0.0000 H       1  UNL1        0.0654
     44 H           2.0000   -1.8827    0.0000 H       1  UNL1        0.2921
@<TRIPOS>BOND
     1     7     1    1
     2     1    40    1
     3     2    20    1
     4     2    44    1
     5     3     4    1
     6     3     7    1
     7     3     8    1
     8     3    13    1
     9     4     5    1
    10     4     9    1
    11     4    21    1
    12     5     6    1
    13     5    12    1
    14     5    22    1
    15     6    10    1
    16     6    14    1
    17     6    23    1
    18     7    11    1
    19     7    24    1
    20     8    10    1
    21     8    25    1
    22     8    26    1
    23     9    11    1
    24     9    27    1
    25     9    28    1
    26    10    29    1
    27    10    30    1
    28    11    31    1
    29    11    32    1
    30    12    15    1
    31    12    33    1
    32    12    34    1
    33    13    35    1
    34    13    36    1
    35    13    37    1
    36    14    16   ar
    37    14    17   ar
    38    15    16    1
    39    15    38    1
    40    15    39    1
    41    16    18   ar
    42    17    19   ar
    43    17    41    1
    44    18    20   ar
    45    18    42    1
    46    19    20   ar
    47    19    43    1
