@<TRIPOS>MOLECULE
IMPHY016785
 58 57 0 0 0
SMALL
GASTEIGER

@<TRIPOS>ATOM
      1 O           3.7320    0.4400    0.0000 O.3     1  UNL1       -0.4338
      2 O           2.8660   -1.0600    0.0000 O.2     1  UNL1       -0.2508
      3 C          13.2583   -0.0600    0.0000 C.3     1  UNL1       -0.0531
      4 C          14.1244    0.4400    0.0000 C.3     1  UNL1       -0.0531
      5 C          12.3923    0.4400    0.0000 C.3     1  UNL1       -0.0531
      6 C          14.9904   -0.0600    0.0000 C.3     1  UNL1       -0.0531
      7 C          11.5263   -0.0600    0.0000 C.3     1  UNL1       -0.0531
      8 C          15.8564    0.4400    0.0000 C.3     1  UNL1       -0.0531
      9 C          10.6603    0.4400    0.0000 C.3     1  UNL1       -0.0530
     10 C          16.7224   -0.0600    0.0000 C.3     1  UNL1       -0.0531
     11 C           9.7942   -0.0600    0.0000 C.3     1  UNL1       -0.0528
     12 C          17.5885    0.4400    0.0000 C.3     1  UNL1       -0.0533
     13 C           8.9282    0.4400    0.0000 C.3     1  UNL1       -0.0496
     14 C          18.4545   -0.0600    0.0000 C.3     1  UNL1       -0.0559
     15 C           8.0622   -0.0600    0.0000 C.3     1  UNL1       -0.0345
     16 C          19.3205    0.4400    0.0000 C.3     1  UNL1       -0.0653
     17 C           7.1962    0.4400    0.0000 C.2     1  UNL1       -0.0839
     18 C           6.3301   -0.0600    0.0000 C.2     1  UNL1       -0.0628
     19 C           5.4641    0.4400    0.0000 C.2     1  UNL1       -0.0270
     20 C           4.5981   -0.0600    0.0000 C.2     1  UNL1        0.0956
     21 C           2.8660   -0.0600    0.0000 C.2     1  UNL1        0.3086
     22 C           2.0000    0.4400    0.0000 C.3     1  UNL1        0.0336
     23 H          12.8598   -0.5349    0.0000 H       1  UNL1        0.0265
     24 H          13.6569   -0.5349    0.0000 H       1  UNL1        0.0265
     25 H          14.5229    0.9149    0.0000 H       1  UNL1        0.0265
     26 H          13.7258    0.9149    0.0000 H       1  UNL1        0.0265
     27 H          12.7908    0.9149    0.0000 H       1  UNL1        0.0265
     28 H          11.9938    0.9149    0.0000 H       1  UNL1        0.0265
     29 H          14.5919   -0.5349    0.0000 H       1  UNL1        0.0265
     30 H          15.3889   -0.5349    0.0000 H       1  UNL1        0.0265
     31 H          11.1278   -0.5349    0.0000 H       1  UNL1        0.0265
     32 H          11.9248   -0.5349    0.0000 H       1  UNL1        0.0265
     33 H          16.2549    0.9149    0.0000 H       1  UNL1        0.0265
     34 H          15.4579    0.9149    0.0000 H       1  UNL1        0.0265
     35 H          11.0588    0.9149    0.0000 H       1  UNL1        0.0265
     36 H          10.2617    0.9149    0.0000 H       1  UNL1        0.0265
     37 H          16.3239   -0.5349    0.0000 H       1  UNL1        0.0265
     38 H          17.1210   -0.5349    0.0000 H       1  UNL1        0.0265
     39 H           9.3957   -0.5349    0.0000 H       1  UNL1        0.0265
     40 H          10.1928   -0.5349    0.0000 H       1  UNL1        0.0265
     41 H          17.9870    0.9149    0.0000 H       1  UNL1        0.0265
     42 H          17.1899    0.9149    0.0000 H       1  UNL1        0.0265
     43 H           9.3267    0.9149    0.0000 H       1  UNL1        0.0268
     44 H           8.5297    0.9149    0.0000 H       1  UNL1        0.0268
     45 H          18.0560   -0.5349    0.0000 H       1  UNL1        0.0263
     46 H          18.8530   -0.5349    0.0000 H       1  UNL1        0.0263
     47 H           7.6636   -0.5349    0.0000 H       1  UNL1        0.0307
     48 H           8.4607   -0.5349    0.0000 H       1  UNL1        0.0307
     49 H          19.6305   -0.0969    0.0000 H       1  UNL1        0.0230
     50 H          19.8574    0.7500    0.0000 H       1  UNL1        0.0230
     51 H          19.0105    0.9769    0.0000 H       1  UNL1        0.0230
     52 H           7.1962    1.0600    0.0000 H       1  UNL1        0.0572
     53 H           6.3301   -0.6800    0.0000 H       1  UNL1        0.0615
     54 H           5.4641    1.0600    0.0000 H       1  UNL1        0.0648
     55 H           4.5981   -0.6800    0.0000 H       1  UNL1        0.1030
     56 H           2.3100    0.9769    0.0000 H       1  UNL1        0.0342
     57 H           1.4631    0.7500    0.0000 H       1  UNL1        0.0342
     58 H           1.6900   -0.0969    0.0000 H       1  UNL1        0.0342
@<TRIPOS>BOND
     1     1    20    1
     2     1    21    1
     3     2    21    2
     4     3     4    1
     5     3     5    1
     6     3    23    1
     7     3    24    1
     8     4     6    1
     9     4    25    1
    10     4    26    1
    11     5     7    1
    12     5    27    1
    13     5    28    1
    14     6     8    1
    15     6    29    1
    16     6    30    1
    17     7     9    1
    18     7    31    1
    19     7    32    1
    20     8    10    1
    21     8    33    1
    22     8    34    1
    23     9    11    1
    24     9    35    1
    25     9    36    1
    26    10    12    1
    27    10    37    1
    28    10    38    1
    29    11    13    1
    30    11    39    1
    31    11    40    1
    32    12    14    1
    33    12    41    1
    34    12    42    1
    35    13    15    1
    36    13    43    1
    37    13    44    1
    38    14    16    1
    39    14    45    1
    40    14    46    1
    41    15    17    1
    42    15    47    1
    43    15    48    1
    44    16    49    1
    45    16    50    1
    46    16    51    1
    47    17    18    2
    48    17    52    1
    49    18    19    1
    50    18    53    1
    51    19    20    2
    52    19    54    1
    53    20    55    1
    54    21    22    1
    55    22    56    1
    56    22    57    1
    57    22    58    1
