@<TRIPOS>MOLECULE
IMPHY004710
 66 69 0 0 0
SMALL
GASTEIGER

@<TRIPOS>ATOM
      1 O           5.1350   -2.8813    0.0000 O.3     1  UNL1       -0.3313
      2 O           6.8671   -2.8813    0.0000 O.3     1  UNL1       -0.4569
      3 O           5.1350   -5.8813    0.0000 O.3     1  UNL1       -0.3864
      4 O           3.4030   -4.8813    0.0000 O.3     1  UNL1       -0.3865
      5 O           6.8671   -4.8813    0.0000 O.3     1  UNL1       -0.3829
      6 O           2.5369   -3.3813    0.0000 O.3     1  UNL1       -0.3924
      7 O           8.5991   -1.8813    0.0000 O.3     1  UNL1       -0.4885
      8 O           8.6431    0.1256    0.0000 O.2     1  UNL1       -0.4582
      9 O           5.1350    0.1187    0.0000 O.3     1  UNL1       -0.5058
     10 O           5.9793    1.6502    0.0000 O.2     1  UNL1       -0.2863
     11 O           9.4772    2.6947    0.0000 O.3     1  UNL1       -0.4944
     12 O           6.0054    4.6813    0.0000 O.3     1  UNL1       -0.4914
     13 O           7.7336    5.6880    0.0000 O.3     1  UNL1       -0.4913
     14 C           5.1350   -4.8813    0.0000 C.3     1  UNL1        0.1152
     15 C           4.2690   -4.3813    0.0000 C.3     1  UNL1        0.1120
     16 C           6.0010   -4.3813    0.0000 C.3     1  UNL1        0.1454
     17 C           4.2690   -3.3813    0.0000 C.3     1  UNL1        0.1140
     18 C           6.0010   -3.3813    0.0000 C.3     1  UNL1        0.2310
     19 C           3.4030   -2.8813    0.0000 C.3     1  UNL1        0.0731
     20 C           6.8671   -1.8813    0.0000 C.ar    1  UNL1        0.1726
     21 C           7.7331   -1.3813    0.0000 C.ar    1  UNL1        0.2052
     22 C           6.0010   -1.3813    0.0000 C.ar    1  UNL1        0.0263
     23 C           7.7331   -0.3813    0.0000 C.ar    1  UNL1        0.1870
     24 C           6.8671    0.1187    0.0000 C.ar    1  UNL1        0.1097
     25 C           6.0010   -0.3813    0.0000 C.ar    1  UNL1        0.1349
     26 C           6.8510    1.1602    0.0000 C.ar    1  UNL1        0.2039
     27 C           7.7490    1.6880    0.0000 C.ar    1  UNL1        0.0680
     28 C           8.6511    1.1672    0.0000 C.ar    1  UNL1        0.1041
     29 C           7.7452    2.6880    0.0000 C.ar    1  UNL1        0.0341
     30 C           8.6093    3.1913    0.0000 C.ar    1  UNL1        0.1317
     31 C           9.4651   -1.3813    0.0000 C.3     1  UNL1        0.0791
     32 C           6.8772    3.1846    0.0000 C.ar    1  UNL1       -0.0049
     33 C           6.8734    4.1846    0.0000 C.ar    1  UNL1        0.1623
     34 C           8.6054    4.1913    0.0000 C.ar    1  UNL1        0.0260
     35 C           7.7375    4.6880    0.0000 C.ar    1  UNL1        0.1650
     36 C          10.3413    3.1980    0.0000 C.3     1  UNL1        0.0788
     37 C           6.0016    5.6813    0.0000 C.3     1  UNL1        0.0790
     38 C           8.5977    6.1913    0.0000 C.3     1  UNL1        0.0790
     39 H           4.5981   -5.1913    0.0000 H       1  UNL1        0.0648
     40 H           4.2690   -5.0013    0.0000 H       1  UNL1        0.0647
     41 H           6.0010   -5.0013    0.0000 H       1  UNL1        0.0683
     42 H           4.2690   -2.7613    0.0000 H       1  UNL1        0.0647
     43 H           6.0010   -2.7613    0.0000 H       1  UNL1        0.1084
     44 H           3.8015   -2.4063    0.0000 H       1  UNL1        0.0584
     45 H           3.0044   -2.4063    0.0000 H       1  UNL1        0.0584
     46 H           4.5981   -6.1913    0.0000 H       1  UNL1        0.2100
     47 H           3.4030   -5.5013    0.0000 H       1  UNL1        0.2100
     48 H           6.8671   -5.5013    0.0000 H       1  UNL1        0.2102
     49 H           2.0000   -3.0713    0.0000 H       1  UNL1        0.2095
     50 H           5.4641   -1.6913    0.0000 H       1  UNL1        0.0692
     51 H           9.1892    1.4751    0.0000 H       1  UNL1        0.1037
     52 H           4.5981   -0.1913    0.0000 H       1  UNL1        0.2922
     53 H           6.3415    2.8726    0.0000 H       1  UNL1        0.0663
     54 H           9.7751   -1.9182    0.0000 H       1  UNL1        0.0660
     55 H          10.0021   -1.0713    0.0000 H       1  UNL1        0.0660
     56 H           9.1551   -0.8443    0.0000 H       1  UNL1        0.0660
     57 H           9.1412    4.5034    0.0000 H       1  UNL1        0.0692
     58 H          10.6534    2.6622    0.0000 H       1  UNL1        0.0660
     59 H          10.8771    3.5100    0.0000 H       1  UNL1        0.0660
     60 H          10.0292    3.7337    0.0000 H       1  UNL1        0.0660
     61 H           6.6216    5.6837    0.0000 H       1  UNL1        0.0660
     62 H           5.9992    6.3013    0.0000 H       1  UNL1        0.0660
     63 H           5.3816    5.6789    0.0000 H       1  UNL1        0.0660
     64 H           8.9098    5.6556    0.0000 H       1  UNL1        0.0660
     65 H           9.1334    6.5034    0.0000 H       1  UNL1        0.0660
     66 H           8.2856    6.7270    0.0000 H       1  UNL1        0.0660
@<TRIPOS>BOND
     1     1    17    1
     2     1    18    1
     3    18     2    1
     4     2    20    1
     5    14     3    1
     6     3    46    1
     7    15     4    1
     8     4    47    1
     9     5    16    1
    10     5    48    1
    11     6    19    1
    12     6    49    1
    13     7    21    1
    14     7    31    1
    15     8    23   ar
    16     8    28   ar
    17     9    25    1
    18     9    52    1
    19    10    26    2
    20    11    30    1
    21    11    36    1
    22    12    33    1
    23    12    37    1
    24    13    35    1
    25    13    38    1
    26    14    15    1
    27    14    16    1
    28    14    39    1
    29    15    17    1
    30    15    40    1
    31    16    18    1
    32    16    41    1
    33    17    19    1
    34    17    42    1
    35    18    43    1
    36    19    44    1
    37    19    45    1
    38    20    21   ar
    39    20    22   ar
    40    21    23   ar
    41    22    25   ar
    42    22    50    1
    43    23    24   ar
    44    24    25   ar
    45    24    26   ar
    46    26    27   ar
    47    27    28   ar
    48    27    29    1
    49    28    51    1
    50    29    30   ar
    51    29    32   ar
    52    30    34   ar
    53    31    54    1
    54    31    55    1
    55    31    56    1
    56    32    33   ar
    57    32    53    1
    58    33    35   ar
    59    34    35   ar
    60    34    57    1
    61    36    58    1
    62    36    59    1
    63    36    60    1
    64    37    61    1
    65    37    62    1
    66    37    63    1
    67    38    64    1
    68    38    65    1
    69    38    66    1
