@<TRIPOS>MOLECULE
IMPHY017887
 41 41 0 0 0
SMALL
GASTEIGER

@<TRIPOS>ATOM
      1 C           5.4641   -0.3100    0.0000 C.3     1  UNL1       -0.0350
      2 C           6.3301   -0.8100    0.0000 C.3     1  UNL1       -0.0436
      3 C           5.4641    0.6900    0.0000 C.3     1  UNL1       -0.0460
      4 C           4.5981   -0.8100    0.0000 C.3     1  UNL1       -0.0314
      5 C           4.5981    1.1900    0.0000 C.3     1  UNL1       -0.0317
      6 C           7.1962   -0.3100    0.0000 C.3     1  UNL1       -0.0624
      7 C           6.3301   -1.8100    0.0000 C.3     1  UNL1       -0.0624
      8 C           3.7320   -0.3100    0.0000 C.2     1  UNL1       -0.0847
      9 C           3.7320    0.6900    0.0000 C.2     1  UNL1       -0.0765
     10 C           2.8660   -0.8100    0.0000 C.2     1  UNL1       -0.0762
     11 C           2.0000   -0.3100    0.0000 C.3     1  UNL1       -0.0286
     12 C           2.0000    0.6900    0.0000 C.3     1  UNL1       -0.0308
     13 C           2.8660    1.1900    0.0000 C.2     1  UNL1       -0.0847
     14 C           3.4630   -0.8365    0.0000 C.3     1  UNL1       -0.0438
     15 C           2.8660   -1.8100    0.0000 C.3     1  UNL1       -0.0438
     16 H           5.4641   -0.9300    0.0000 H       1  UNL1        0.0306
     17 H           6.8671   -1.1200    0.0000 H       1  UNL1        0.0298
     18 H           6.0747    0.5823    0.0000 H       1  UNL1        0.0271
     19 H           5.6762    1.2726    0.0000 H       1  UNL1        0.0271
     20 H           4.1996   -1.2850    0.0000 H       1  UNL1        0.0310
     21 H           4.9966   -1.2850    0.0000 H       1  UNL1        0.0310
     22 H           4.9966    1.6650    0.0000 H       1  UNL1        0.0310
     23 H           4.1996    1.6650    0.0000 H       1  UNL1        0.0310
     24 H           7.5062   -0.8469    0.0000 H       1  UNL1        0.0232
     25 H           7.7331    0.0000    0.0000 H       1  UNL1        0.0232
     26 H           6.8862    0.2269    0.0000 H       1  UNL1        0.0232
     27 H           5.7101   -1.8100    0.0000 H       1  UNL1        0.0232
     28 H           6.3301   -2.4300    0.0000 H       1  UNL1        0.0232
     29 H           6.9501   -1.8100    0.0000 H       1  UNL1        0.0232
     30 H           4.1306    0.1649    0.0000 H       1  UNL1        0.0572
     31 H           1.3894   -0.2023    0.0000 H       1  UNL1        0.0313
     32 H           1.7880   -0.8926    0.0000 H       1  UNL1        0.0313
     33 H           1.7880    1.2726    0.0000 H       1  UNL1        0.0310
     34 H           1.3894    0.5823    0.0000 H       1  UNL1        0.0310
     35 H           2.8660    1.8100    0.0000 H       1  UNL1        0.0572
     36 H           2.8524   -0.7289    0.0000 H       1  UNL1        0.0274
     37 H           3.3554   -1.4471    0.0000 H       1  UNL1        0.0274
     38 H           4.0736   -0.9441    0.0000 H       1  UNL1        0.0274
     39 H           2.2460   -1.8100    0.0000 H       1  UNL1        0.0274
     40 H           2.8660   -2.4300    0.0000 H       1  UNL1        0.0274
     41 H           3.4860   -1.8100    0.0000 H       1  UNL1        0.0274
@<TRIPOS>BOND
     1     1     2    1
     2     1     3    1
     3     1     4    1
     4     1    16    1
     5     2     6    1
     6     2     7    1
     7     2    17    1
     8     3     5    1
     9     3    18    1
    10     3    19    1
    11     4     8    1
    12     4    20    1
    13     4    21    1
    14     5     9    1
    15     5    22    1
    16     5    23    1
    17     6    24    1
    18     6    25    1
    19     6    26    1
    20     7    27    1
    21     7    28    1
    22     7    29    1
    23     8    10    2
    24     8    30    1
    25     9    13    2
    26     9    14    1
    27    10    11    1
    28    10    15    1
    29    11    12    1
    30    11    31    1
    31    11    32    1
    32    12    13    1
    33    12    33    1
    34    12    34    1
    35    13    35    1
    36    14    36    1
    37    14    37    1
    38    14    38    1
    39    15    39    1
    40    15    40    1
    41    15    41    1
