@<TRIPOS>MOLECULE
IMPHY002643
 58 61 0 0 0
SMALL
GASTEIGER

@<TRIPOS>ATOM
      1 O          10.4728   -3.0545    0.0000 O.3     1  UNL1       -0.4852
      2 O          13.0564   -2.2497    0.0000 O.3     1  UNL1       -0.3855
      3 O           6.9006   -3.2844    0.0000 O.2     1  UNL1       -0.4618
      4 O           8.6605   -0.2497    0.0000 O.3     1  UNL1       -0.5055
      5 O           6.9121   -0.2151    0.0000 O.2     1  UNL1       -0.2863
      6 O           6.0022    0.2711    0.0000 O.3     1  UNL1       -0.5058
      7 O           2.5381    0.2844    0.0000 O.3     1  UNL1       -0.5064
      8 C          11.0564   -2.2497    0.0000 C.3     1  UNL1        0.1323
      9 C          12.0564   -2.2497    0.0000 C.3     1  UNL1        0.0974
     10 C          10.4728   -1.4450    0.0000 C.3     1  UNL1        0.0192
     11 C           9.5266   -1.7497    0.0000 C.ar    1  UNL1        0.0401
     12 C           9.5266   -2.7497    0.0000 C.ar    1  UNL1        0.1313
     13 C          12.0564   -3.2497    0.0000 C.3     1  UNL1       -0.0328
     14 C          12.0564   -1.2497    0.0000 C.3     1  UNL1       -0.0328
     15 C           8.6605   -1.2497    0.0000 C.ar    1  UNL1        0.1380
     16 C           8.6605   -3.2497    0.0000 C.ar    1  UNL1        0.0236
     17 C           7.7945   -1.7497    0.0000 C.ar    1  UNL1        0.1063
     18 C           7.7945   -2.7497    0.0000 C.ar    1  UNL1        0.1454
     19 C           6.9006   -1.2151    0.0000 C.ar    1  UNL1        0.2038
     20 C           5.9945   -1.7289    0.0000 C.ar    1  UNL1        0.0679
     21 C           5.9945   -2.7706    0.0000 C.ar    1  UNL1        0.1040
     22 C           5.1304   -1.2256    0.0000 C.ar    1  UNL1        0.0307
     23 C           5.1343   -0.2256    0.0000 C.ar    1  UNL1        0.1317
     24 C           4.2702    0.2777    0.0000 C.ar    1  UNL1        0.0397
     25 C           4.2625   -1.7222    0.0000 C.ar    1  UNL1       -0.0469
     26 C           4.2740    1.2777    0.0000 C.3     1  UNL1       -0.0023
     27 C           3.4022   -0.2189    0.0000 C.ar    1  UNL1        0.1238
     28 C           3.3984   -1.2189    0.0000 C.ar    1  UNL1       -0.0191
     29 C           3.4099    1.7811    0.0000 C.2     1  UNL1       -0.0807
     30 C           3.4138    2.7811    0.0000 C.2     1  UNL1       -0.0793
     31 C           2.5497    3.2844    0.0000 C.3     1  UNL1       -0.0440
     32 C           4.2817    3.2777    0.0000 C.3     1  UNL1       -0.0440
     33 H          11.3381   -2.8020    0.0000 H       1  UNL1        0.0765
     34 H          11.0102   -1.1358    0.0000 H       1  UNL1        0.0352
     35 H          10.2217   -0.8781    0.0000 H       1  UNL1        0.0352
     36 H          11.4364   -3.2497    0.0000 H       1  UNL1        0.0258
     37 H          12.0564   -3.8697    0.0000 H       1  UNL1        0.0258
     38 H          12.6764   -3.2497    0.0000 H       1  UNL1        0.0258
     39 H          12.6764   -1.2497    0.0000 H       1  UNL1        0.0258
     40 H          12.0564   -0.6297    0.0000 H       1  UNL1        0.0258
     41 H          11.4364   -1.2497    0.0000 H       1  UNL1        0.0258
     42 H           8.6605   -3.8697    0.0000 H       1  UNL1        0.0691
     43 H          13.3664   -2.7867    0.0000 H       1  UNL1        0.2103
     44 H           9.1975    0.0603    0.0000 H       1  UNL1        0.2922
     45 H           5.4588   -3.0826    0.0000 H       1  UNL1        0.1037
     46 H           4.2601   -2.3422    0.0000 H       1  UNL1        0.0626
     47 H           4.8842    1.1677    0.0000 H       1  UNL1        0.0358
     48 H           4.4883    1.8595    0.0000 H       1  UNL1        0.0358
     49 H           2.8602   -1.5268    0.0000 H       1  UNL1        0.0654
     50 H           2.8718    1.4731    0.0000 H       1  UNL1        0.0575
     51 H           6.0046    0.8911    0.0000 H       1  UNL1        0.2922
     52 H           2.0000   -0.0235    0.0000 H       1  UNL1        0.2921
     53 H           2.8618    3.8201    0.0000 H       1  UNL1        0.0274
     54 H           4.5897    2.7396    0.0000 H       1  UNL1        0.0274
     55 H           4.8199    3.5856    0.0000 H       1  UNL1        0.0274
     56 H           3.9738    3.8158    0.0000 H       1  UNL1        0.0274
     57 H           2.0140    3.5965    0.0000 H       1  UNL1        0.0274
     58 H           2.2376    2.7487    0.0000 H       1  UNL1        0.0274
@<TRIPOS>BOND
     1     1     8    1
     2     1    12    1
     3     2     9    1
     4     2    43    1
     5     3    18   ar
     6     3    21   ar
     7     4    15    1
     8     4    44    1
     9     5    19    2
    10     6    23    1
    11     6    51    1
    12     7    27    1
    13     7    52    1
    14     8     9    1
    15     8    10    1
    16     8    33    1
    17     9    13    1
    18     9    14    1
    19    10    11    1
    20    10    34    1
    21    10    35    1
    22    11    12   ar
    23    11    15   ar
    24    12    16   ar
    25    13    36    1
    26    13    37    1
    27    13    38    1
    28    14    39    1
    29    14    40    1
    30    14    41    1
    31    15    17   ar
    32    16    18   ar
    33    16    42    1
    34    17    18   ar
    35    17    19   ar
    36    19    20   ar
    37    20    21   ar
    38    20    22    1
    39    21    45    1
    40    22    23   ar
    41    22    25   ar
    42    23    24   ar
    43    24    26    1
    44    24    27   ar
    45    25    28   ar
    46    25    46    1
    47    26    29    1
    48    26    47    1
    49    26    48    1
    50    27    28   ar
    51    28    49    1
    52    29    30    2
    53    29    50    1
    54    30    31    1
    55    30    32    1
    56    31    53    1
    57    31    57    1
    58    31    58    1
    59    32    54    1
    60    32    55    1
    61    32    56    1
