@<TRIPOS>MOLECULE
IMPHY004951
 67 71 0 0 0
SMALL
GASTEIGER

@<TRIPOS>ATOM
      1 O           9.1001    3.0681    0.0000 O.3     1  UNL1       -0.4811
      2 O           7.2342   -0.0083    0.0000 O.2     1  UNL1       -0.4535
      3 O           4.5841   -1.5568    0.0000 O.3     1  UNL1       -0.4791
      4 O           5.4803    3.0231    0.0000 O.3     1  UNL1       -0.5052
      5 O           4.6361    1.4917    0.0000 O.2     1  UNL1       -0.2865
      6 O           8.2246   -3.6453    0.0000 O.3     1  UNL1       -0.5033
      7 O           6.4213   -4.7050    0.0000 O.3     1  UNL1       -0.5032
      8 C           9.1084    4.1530    0.0000 C.3     1  UNL1        0.1235
      9 C           8.1442    1.4985    0.0000 C.ar    1  UNL1        0.0417
     10 C           8.1522    2.5401    0.0000 C.ar    1  UNL1        0.1393
     11 C           7.2342    0.9917    0.0000 C.ar    1  UNL1        0.1498
     12 C           6.3682    1.4917    0.0000 C.ar    1  UNL1        0.1068
     13 C           5.5021   -0.0083    0.0000 C.ar    1  UNL1        0.0869
     14 C           7.2501    3.0609    0.0000 C.ar    1  UNL1        0.0591
     15 C           6.3682   -0.5083    0.0000 C.ar    1  UNL1        0.1499
     16 C           4.5921   -0.5152    0.0000 C.3     1  UNL1        0.1507
     17 C           6.3521    2.5332    0.0000 C.ar    1  UNL1        0.1418
     18 C           5.5021    0.9917    0.0000 C.ar    1  UNL1        0.2037
     19 C           8.1688    4.6955    0.0000 C.2     1  UNL1       -0.0408
     20 C           9.0044    0.9885    0.0000 C.3     1  UNL1       -0.0022
     21 C           6.3842   -1.5498    0.0000 C.ar    1  UNL1        0.0631
     22 C           7.2334    4.1458    0.0000 C.2     1  UNL1       -0.0478
     23 C           9.6118    5.0171    0.0000 C.3     1  UNL1       -0.0215
     24 C          10.1084    4.1492    0.0000 C.3     1  UNL1       -0.0215
     25 C           5.4862   -2.0776    0.0000 C.ar    1  UNL1        0.1362
     26 C           3.7319   -0.0052    0.0000 C.2     1  UNL1       -0.0406
     27 C           7.3361   -2.0705    0.0000 C.ar    1  UNL1       -0.0023
     28 C           9.8761    1.4785    0.0000 C.2     1  UNL1       -0.0807
     29 C           5.4778   -3.1626    0.0000 C.ar    1  UNL1        0.0259
     30 C           2.8602   -0.4952    0.0000 C.2     1  UNL1       -0.0759
     31 C           7.3529   -3.1553    0.0000 C.ar    1  UNL1        0.1591
     32 C           6.4174   -3.7050    0.0000 C.ar    1  UNL1        0.1618
     33 C          10.7363    0.9685    0.0000 C.2     1  UNL1       -0.0793
     34 C           2.0000    0.0148    0.0000 C.3     1  UNL1       -0.0439
     35 C           2.8486   -1.4951    0.0000 C.3     1  UNL1       -0.0439
     36 C          11.6080    1.4585    0.0000 C.3     1  UNL1       -0.0440
     37 C          10.7247   -0.0314    0.0000 C.3     1  UNL1       -0.0440
     38 H           4.0522   -0.8200    0.0000 H       1  UNL1        0.0833
     39 H           8.1664    5.3155    0.0000 H       1  UNL1        0.0611
     40 H           8.6004    0.5182    0.0000 H       1  UNL1        0.0358
     41 H           9.3974    0.5090    0.0000 H       1  UNL1        0.0358
     42 H           6.6929    4.4496    0.0000 H       1  UNL1        0.0624
     43 H          10.1061    3.5292    0.0000 H       1  UNL1        0.0271
     44 H          10.7284    4.1468    0.0000 H       1  UNL1        0.0271
     45 H          10.1108    4.7692    0.0000 H       1  UNL1        0.0271
     46 H          10.1475    4.7050    0.0000 H       1  UNL1        0.0271
     47 H           9.9238    5.5528    0.0000 H       1  UNL1        0.0271
     48 H           9.0760    5.3292    0.0000 H       1  UNL1        0.0271
     49 H           3.7391    0.6148    0.0000 H       1  UNL1        0.0611
     50 H           7.8670   -1.7502    0.0000 H       1  UNL1        0.0663
     51 H           9.8833    2.0984    0.0000 H       1  UNL1        0.0575
     52 H           4.9397   -3.4705    0.0000 H       1  UNL1        0.0692
     53 H           5.4732    3.6431    0.0000 H       1  UNL1        0.2922
     54 H           2.3162    0.5481    0.0000 H       1  UNL1        0.0274
     55 H           1.4667    0.3310    0.0000 H       1  UNL1        0.0274
     56 H           1.6838   -0.5185    0.0000 H       1  UNL1        0.0274
     57 H           2.2287   -1.4879    0.0000 H       1  UNL1        0.0274
     58 H           2.8414   -2.1150    0.0000 H       1  UNL1        0.0274
     59 H           3.4686   -1.5022    0.0000 H       1  UNL1        0.0274
     60 H          11.9118    0.9180    0.0000 H       1  UNL1        0.0274
     61 H          12.1485    1.7622    0.0000 H       1  UNL1        0.0274
     62 H          11.3043    1.9989    0.0000 H       1  UNL1        0.0274
     63 H          10.1048   -0.0243    0.0000 H       1  UNL1        0.0274
     64 H          10.7176   -0.6514    0.0000 H       1  UNL1        0.0274
     65 H          11.3447   -0.0386    0.0000 H       1  UNL1        0.0274
     66 H           8.2318   -4.2652    0.0000 H       1  UNL1        0.2923
     67 H           5.8856   -5.0171    0.0000 H       1  UNL1        0.2923
@<TRIPOS>BOND
     1     1     8    1
     2     1    10    1
     3     2    11   ar
     4     2    15   ar
     5     3    16    1
     6     3    25    1
     7     4    17    1
     8     4    53    1
     9     5    18    2
    10     6    31    1
    11     6    66    1
    12     7    32    1
    13     7    67    1
    14     8    19    1
    15     8    23    1
    16     8    24    1
    17     9    10   ar
    18     9    11   ar
    19     9    20    1
    20    10    14   ar
    21    11    12   ar
    22    12    17   ar
    23    12    18   ar
    24    13    15   ar
    25    13    16    1
    26    13    18   ar
    27    14    17   ar
    28    14    22    1
    29    15    21    1
    30    16    26    1
    31    16    38    1
    32    19    22    2
    33    19    39    1
    34    20    28    1
    35    20    40    1
    36    20    41    1
    37    21    25   ar
    38    21    27   ar
    39    22    42    1
    40    23    46    1
    41    23    47    1
    42    23    48    1
    43    24    43    1
    44    24    44    1
    45    24    45    1
    46    25    29   ar
    47    26    30    2
    48    26    49    1
    49    27    31   ar
    50    27    50    1
    51    28    33    2
    52    28    51    1
    53    29    32   ar
    54    29    52    1
    55    30    34    1
    56    30    35    1
    57    31    32   ar
    58    33    36    1
    59    33    37    1
    60    34    54    1
    61    34    55    1
    62    34    56    1
    63    35    57    1
    64    35    58    1
    65    35    59    1
    66    36    60    1
    67    36    61    1
    68    36    62    1
    69    37    63    1
    70    37    64    1
    71    37    65    1
