@<TRIPOS>MOLECULE
IMPHY001281
 75 80 0 0 0
SMALL
GASTEIGER

@<TRIPOS>ATOM
      1 O           5.5954   -2.5456    0.0000 O.3     1  UNL1       -0.3448
      2 O          11.0647    0.2168    0.0000 O.3     1  UNL1       -0.3853
      3 O           3.9300   -1.4644    0.0000 O.3     1  UNL1       -0.3441
      4 O           8.3882    2.7918    0.0000 O.3     1  UNL1       -0.3911
      5 O          12.0027    0.7420    0.0000 O.3     1  UNL1       -0.3864
      6 O          12.0027    2.8336    0.0000 O.3     1  UNL1       -0.3891
      7 C           6.6628   -0.3108    0.0000 C.3     1  UNL1       -0.0233
      8 C           7.5288   -0.8108    0.0000 C.3     1  UNL1       -0.0298
      9 C           8.3948   -0.3108    0.0000 C.3     1  UNL1       -0.0340
     10 C           8.3948    0.6892    0.0000 C.3     1  UNL1       -0.0274
     11 C           5.9258   -0.9778    0.0000 C.3     1  UNL1       -0.0015
     12 C           9.2888    1.2239    0.0000 C.3     1  UNL1        0.0283
     13 C           6.3309   -1.8856    0.0000 C.3     1  UNL1        0.0660
     14 C           7.3196   -1.7826    0.0000 C.3     1  UNL1       -0.0226
     15 C           6.6628    0.6892    0.0000 C.3     1  UNL1       -0.0467
     16 C           7.5288    1.1892    0.0000 C.3     1  UNL1       -0.0488
     17 C          10.1949    0.7101    0.0000 C.3     1  UNL1        0.1022
     18 C           4.9434   -1.0845    0.0000 C.3     1  UNL1        0.0160
     19 C           9.2888   -0.8454    0.0000 C.3     1  UNL1       -0.0470
     20 C          10.1949   -0.3316    0.0000 C.3     1  UNL1       -0.0206
     21 C           4.7396   -2.0515    0.0000 C.3     1  UNL1        0.1739
     22 C           5.7968    0.1892    0.0000 C.3     1  UNL1       -0.0590
     23 C           9.2637    2.3086    0.0000 C.3     1  UNL1        0.0660
     24 C          11.1386    1.2453    0.0000 C.3     1  UNL1        0.1103
     25 C           8.4189    1.7172    0.0000 C.3     1  UNL1       -0.0542
     26 C          10.1949    2.8655    0.0000 C.3     1  UNL1        0.0024
     27 C          11.1386    2.3303    0.0000 C.3     1  UNL1        0.0861
     28 C           4.2723   -0.3431    0.0000 C.3     1  UNL1       -0.0572
     29 C           4.6359   -3.0461    0.0000 C.3     1  UNL1        0.0054
     30 C           3.7227   -3.4536    0.0000 C.3     1  UNL1       -0.0250
     31 C           3.0169   -1.8719    0.0000 C.3     1  UNL1        0.0718
     32 C           2.9132   -2.8665    0.0000 C.2     1  UNL1       -0.0510
     33 C           2.0000   -3.2741    0.0000 C.2     1  UNL1       -0.0973
     34 H           8.2158   -1.3113    0.0000 H       1  UNL1        0.0310
     35 H           8.3883   -1.1607    0.0000 H       1  UNL1        0.0306
     36 H           9.1342    0.2699    0.0000 H       1  UNL1        0.0311
     37 H           5.5777   -0.2024    0.0000 H       1  UNL1        0.0335
     38 H           6.6756   -2.6626    0.0000 H       1  UNL1        0.0600
     39 H           7.3187   -2.4026    0.0000 H       1  UNL1        0.0293
     40 H           7.9361   -1.8486    0.0000 H       1  UNL1        0.0293
     41 H           6.4507    1.2719    0.0000 H       1  UNL1        0.0271
     42 H           6.0522    0.5816    0.0000 H       1  UNL1        0.0271
     43 H           7.9274    1.6642    0.0000 H       1  UNL1        0.0268
     44 H           7.1303    1.6642    0.0000 H       1  UNL1        0.0268
     45 H           4.3448   -1.2463    0.0000 H       1  UNL1        0.0354
     46 H           8.8842   -1.3152    0.0000 H       1  UNL1        0.0269
     47 H           9.6824   -1.3244    0.0000 H       1  UNL1        0.0269
     48 H          10.4039   -0.9153    0.0000 H       1  UNL1        0.0294
     49 H          10.8057   -0.2255    0.0000 H       1  UNL1        0.0294
     50 H           6.1068    0.7262    0.0000 H       1  UNL1        0.0235
     51 H           5.2598    0.4992    0.0000 H       1  UNL1        0.0235
     52 H           5.4868   -0.3477    0.0000 H       1  UNL1        0.0235
     53 H           9.2529    2.9285    0.0000 H       1  UNL1        0.0600
     54 H          11.1351    0.6253    0.0000 H       1  UNL1        0.0648
     55 H           8.7248    2.2565    0.0000 H       1  UNL1        0.0237
     56 H           7.8796    2.0231    0.0000 H       1  UNL1        0.0237
     57 H           8.1131    1.1779    0.0000 H       1  UNL1        0.0237
     58 H          10.5885    3.3446    0.0000 H       1  UNL1        0.0316
     59 H           9.7903    3.3353    0.0000 H       1  UNL1        0.0316
     60 H          11.1351    2.9503    0.0000 H       1  UNL1        0.0621
     61 H           4.7320    0.0729    0.0000 H       1  UNL1        0.0234
     62 H           3.8562    0.1165    0.0000 H       1  UNL1        0.0234
     63 H           3.8126   -0.7592    0.0000 H       1  UNL1        0.0234
     64 H           4.7864   -3.6476    0.0000 H       1  UNL1        0.0320
     65 H           5.2544   -3.0023    0.0000 H       1  UNL1        0.0320
     66 H          11.0695   -0.4032    0.0000 H       1  UNL1        0.2103
     67 H           8.3762    3.4117    0.0000 H       1  UNL1        0.2098
     68 H           3.2771   -3.8847    0.0000 H       1  UNL1        0.0312
     69 H           4.0699   -3.9673    0.0000 H       1  UNL1        0.0312
     70 H          12.5409    1.0499    0.0000 H       1  UNL1        0.2100
     71 H           2.8664   -1.2705    0.0000 H       1  UNL1        0.0608
     72 H           2.3984   -1.9157    0.0000 H       1  UNL1        0.0608
     73 H          12.0003    3.4536    0.0000 H       1  UNL1        0.2099
     74 H           1.4981   -2.9101    0.0000 H       1  UNL1        0.0535
     75 H           1.9357   -3.8907    0.0000 H       1  UNL1        0.0535
@<TRIPOS>BOND
     1     1    13    1
     2    21     1    1
     3    17     2    1
     4     2    66    1
     5     3    21    1
     6     3    31    1
     7    23     4    1
     8     4    67    1
     9    24     5    1
    10     5    70    1
    11    27     6    1
    12     6    73    1
    13     7     8    1
    14     7    11    1
    15     7    15    1
    16     7    22    1
    17     8     9    1
    18     8    14    1
    19     8    34    1
    20     9    10    1
    21     9    19    1
    22     9    35    1
    23    10    12    1
    24    10    16    1
    25    10    36    1
    26    11    13    1
    27    11    18    1
    28    11    37    1
    29    12    17    1
    30    12    23    1
    31    12    25    1
    32    13    14    1
    33    13    38    1
    34    14    39    1
    35    14    40    1
    36    15    16    1
    37    15    41    1
    38    15    42    1
    39    16    43    1
    40    16    44    1
    41    17    20    1
    42    17    24    1
    43    18    21    1
    44    18    28    1
    45    18    45    1
    46    19    20    1
    47    19    46    1
    48    19    47    1
    49    20    48    1
    50    20    49    1
    51    21    29    1
    52    22    50    1
    53    22    51    1
    54    22    52    1
    55    23    26    1
    56    23    53    1
    57    24    27    1
    58    24    54    1
    59    25    55    1
    60    25    56    1
    61    25    57    1
    62    26    27    1
    63    26    58    1
    64    26    59    1
    65    27    60    1
    66    28    61    1
    67    28    62    1
    68    28    63    1
    69    29    30    1
    70    29    64    1
    71    29    65    1
    72    30    32    1
    73    30    68    1
    74    30    69    1
    75    31    32    1
    76    31    71    1
    77    31    72    1
    78    32    33    2
    79    33    74    1
    80    33    75    1
