@<TRIPOS>MOLECULE
IMPHY016116
 41 40 0 0 0
SMALL
GASTEIGER

@<TRIPOS>ATOM
      1 O           9.7942    1.4400    0.0000 O.3     1  UNL1       -0.3947
      2 C           8.0622    1.4400    0.0000 C.3     1  UNL1       -0.0204
      3 C           7.1962    1.9400    0.0000 C.3     1  UNL1       -0.0449
      4 C           6.3301    1.4400    0.0000 C.3     1  UNL1       -0.0342
      5 C           8.9282    1.9400    0.0000 C.3     1  UNL1        0.0468
      6 C           8.0622    0.4400    0.0000 C.3     1  UNL1       -0.0603
      7 C           5.4641    1.9400    0.0000 C.2     1  UNL1       -0.0850
      8 C           4.5981    1.4400    0.0000 C.2     1  UNL1       -0.0762
      9 C           4.5981    0.4400    0.0000 C.3     1  UNL1       -0.0286
     10 C           3.7320   -0.0600    0.0000 C.3     1  UNL1       -0.0308
     11 C           3.7320    1.9400    0.0000 C.3     1  UNL1       -0.0438
     12 C           3.7320   -1.0600    0.0000 C.2     1  UNL1       -0.0850
     13 C           2.8660   -1.5600    0.0000 C.2     1  UNL1       -0.0796
     14 C           2.8660   -2.5600    0.0000 C.3     1  UNL1       -0.0440
     15 C           2.0000   -1.0600    0.0000 C.3     1  UNL1       -0.0440
     16 H           7.5252    1.1300    0.0000 H       1  UNL1        0.0320
     17 H           7.5947    2.4150    0.0000 H       1  UNL1        0.0271
     18 H           6.7976    2.4150    0.0000 H       1  UNL1        0.0271
     19 H           5.9316    0.9651    0.0000 H       1  UNL1        0.0307
     20 H           6.7287    0.9651    0.0000 H       1  UNL1        0.0307
     21 H           9.3267    2.4150    0.0000 H       1  UNL1        0.0560
     22 H           8.5297    2.4150    0.0000 H       1  UNL1        0.0560
     23 H           7.4422    0.4400    0.0000 H       1  UNL1        0.0233
     24 H           8.0622   -0.1800    0.0000 H       1  UNL1        0.0233
     25 H           8.6822    0.4400    0.0000 H       1  UNL1        0.0233
     26 H           5.4641    2.5600    0.0000 H       1  UNL1        0.0572
     27 H           4.8101   -0.1426    0.0000 H       1  UNL1        0.0313
     28 H           5.2087    0.5477    0.0000 H       1  UNL1        0.0313
     29 H           3.5200    0.5226    0.0000 H       1  UNL1        0.0310
     30 H           3.1215   -0.1677    0.0000 H       1  UNL1        0.0310
     31 H           4.0420    2.4769    0.0000 H       1  UNL1        0.0274
     32 H           3.1951    2.2500    0.0000 H       1  UNL1        0.0274
     33 H           3.4220    1.4031    0.0000 H       1  UNL1        0.0274
     34 H           4.2690   -1.3700    0.0000 H       1  UNL1        0.0572
     35 H          10.3312    1.7500    0.0000 H       1  UNL1        0.2094
     36 H           2.2460   -2.5600    0.0000 H       1  UNL1        0.0274
     37 H           2.8660   -3.1800    0.0000 H       1  UNL1        0.0274
     38 H           3.4860   -2.5600    0.0000 H       1  UNL1        0.0274
     39 H           2.3100   -0.5231    0.0000 H       1  UNL1        0.0274
     40 H           1.4631   -0.7500    0.0000 H       1  UNL1        0.0274
     41 H           1.6900   -1.5969    0.0000 H       1  UNL1        0.0274
@<TRIPOS>BOND
     1     1     5    1
     2     1    35    1
     3     2     3    1
     4     2     5    1
     5     2     6    1
     6     2    16    1
     7     3     4    1
     8     3    17    1
     9     3    18    1
    10     4     7    1
    11     4    19    1
    12     4    20    1
    13     5    21    1
    14     5    22    1
    15     6    23    1
    16     6    24    1
    17     6    25    1
    18     7     8    2
    19     7    26    1
    20     8     9    1
    21     8    11    1
    22     9    10    1
    23     9    27    1
    24     9    28    1
    25    10    12    1
    26    10    29    1
    27    10    30    1
    28    11    31    1
    29    11    32    1
    30    11    33    1
    31    12    13    2
    32    12    34    1
    33    13    14    1
    34    13    15    1
    35    14    36    1
    36    14    37    1
    37    14    38    1
    38    15    39    1
    39    15    40    1
    40    15    41    1
