@<TRIPOS>MOLECULE
IMPHY009386
 45 49 0 0 0
SMALL
GASTEIGER

@<TRIPOS>ATOM
      1 O          10.7758   -0.7389    0.0000 O.3     1  UNL1       -0.4857
      2 O           8.0505    1.6103    0.0000 O.2     1  UNL1       -0.4213
      3 O           7.3193   -1.8147    0.0000 O.3     1  UNL1       -0.4939
      4 O           5.9065   -0.4582    0.0000 O.2     1  UNL1       -0.4536
      5 O           6.7634    2.7693    0.0000 O.2     1  UNL1       -0.2444
      6 O           2.4170    0.4461    0.0000 O.3     1  UNL1       -0.5066
      7 C          11.1190   -1.7682    0.0000 C.3     1  UNL1        0.1054
      8 C          10.3930   -2.5745    0.0000 C.3     1  UNL1       -0.0092
      9 C           9.3335   -2.3407    0.0000 C.3     1  UNL1       -0.0171
     10 C           9.0142   -1.3038    0.0000 C.ar    1  UNL1        0.0369
     11 C           9.7112   -0.5297    0.0000 C.ar    1  UNL1        0.1314
     12 C          11.8647   -2.4344    0.0000 C.3     1  UNL1       -0.0252
     13 C          12.0689   -1.4555    0.0000 C.3     1  UNL1       -0.0252
     14 C           7.9970   -1.0794    0.0000 C.ar    1  UNL1        0.1409
     15 C           7.6904   -0.0839    0.0000 C.ar    1  UNL1        0.1024
     16 C           9.3816    0.4584    0.0000 C.ar    1  UNL1        0.0238
     17 C           8.3596    0.6593    0.0000 C.ar    1  UNL1        0.1496
     18 C           6.7123    0.1240    0.0000 C.ar    1  UNL1        0.1573
     19 C           6.4033    1.0751    0.0000 C.ar    1  UNL1        0.1130
     20 C           5.4092    1.0725    0.0000 C.ar    1  UNL1        0.0351
     21 C           5.1028    0.1268    0.0000 C.ar    1  UNL1        0.1400
     22 C           7.0724    1.8182    0.0000 C.ar    1  UNL1        0.3488
     23 C           4.7276    1.8520    0.0000 C.ar    1  UNL1       -0.0467
     24 C           4.0936   -0.1049    0.0000 C.ar    1  UNL1        0.0228
     25 C           7.6173   -2.7693    0.0000 C.3     1  UNL1        0.0788
     26 C           3.7133    1.6437    0.0000 C.ar    1  UNL1       -0.0194
     27 C           3.3942    0.6586    0.0000 C.ar    1  UNL1        0.1204
     28 H          10.1578   -3.1481    0.0000 H       1  UNL1        0.0307
     29 H          10.9180   -2.9044    0.0000 H       1  UNL1        0.0307
     30 H           8.7185   -2.4191    0.0000 H       1  UNL1        0.0317
     31 H           9.3055   -2.9601    0.0000 H       1  UNL1        0.0317
     32 H          12.2627   -2.0444    0.0000 H       1  UNL1        0.0268
     33 H          12.6578   -1.2616    0.0000 H       1  UNL1        0.0268
     34 H          11.8750   -0.8666    0.0000 H       1  UNL1        0.0268
     35 H          11.4517   -2.8968    0.0000 H       1  UNL1        0.0268
     36 H          12.3271   -2.8475    0.0000 H       1  UNL1        0.0268
     37 H          12.2778   -1.9721    0.0000 H       1  UNL1        0.0268
     38 H           9.7912    0.9240    0.0000 H       1  UNL1        0.0691
     39 H           4.9255    2.4396    0.0000 H       1  UNL1        0.0626
     40 H           3.9094   -0.6969    0.0000 H       1  UNL1        0.0691
     41 H           7.0255   -2.9540    0.0000 H       1  UNL1        0.0660
     42 H           7.8021   -3.3611    0.0000 H       1  UNL1        0.0660
     43 H           8.2092   -2.5845    0.0000 H       1  UNL1        0.0660
     44 H           3.2998    2.1056    0.0000 H       1  UNL1        0.0654
     45 H           2.0000    0.9049    0.0000 H       1  UNL1        0.2921
@<TRIPOS>BOND
     1     1     7    1
     2     1    11    1
     3     2    17   ar
     4     2    22   ar
     5     3    14    1
     6     3    25    1
     7     4    18   ar
     8     4    21   ar
     9     5    22    2
    10     6    27    1
    11     6    45    1
    12     7     8    1
    13     7    12    1
    14     7    13    1
    15     8     9    1
    16     8    28    1
    17     8    29    1
    18     9    10    1
    19     9    30    1
    20     9    31    1
    21    10    11   ar
    22    10    14   ar
    23    11    16   ar
    24    12    35    1
    25    12    36    1
    26    12    37    1
    27    13    32    1
    28    13    33    1
    29    13    34    1
    30    14    15   ar
    31    15    17   ar
    32    15    18   ar
    33    16    17   ar
    34    16    38    1
    35    18    19   ar
    36    19    20   ar
    37    19    22   ar
    38    20    21   ar
    39    20    23   ar
    40    21    24   ar
    41    23    26   ar
    42    23    39    1
    43    24    27   ar
    44    24    40    1
    45    25    41    1
    46    25    42    1
    47    25    43    1
    48    26    27   ar
    49    26    44    1
