@<TRIPOS>MOLECULE
IMPHY014288
 87 91 0 0 0
SMALL
GASTEIGER

@<TRIPOS>ATOM
      1 O           4.7950    0.0575    0.0000 O.3     1  UNL1       -0.3912
      2 O           2.0000   -3.4948    0.0000 O.2     1  UNL1       -0.2968
      3 O          11.6619    2.8436    0.0000 O.3     1  UNL1       -0.3615
      4 O           9.2713    2.7138    0.0000 O.3     1  UNL1       -0.4588
      5 O          10.5605    3.8705    0.0000 O.2     1  UNL1       -0.2512
      6 C           6.5271   -1.9425    0.0000 C.3     1  UNL1       -0.0173
      7 C           5.6610   -1.4425    0.0000 C.3     1  UNL1       -0.0028
      8 C           4.7510   -1.9493    0.0000 C.3     1  UNL1       -0.0223
      9 C           7.3931   -1.4425    0.0000 C.3     1  UNL1       -0.0047
     10 C           4.7430   -2.9909    0.0000 C.3     1  UNL1       -0.0234
     11 C           6.5431   -2.9840    0.0000 C.3     1  UNL1       -0.0462
     12 C           5.6610   -0.4425    0.0000 C.3     1  UNL1        0.0628
     13 C           5.6451   -3.5118    0.0000 C.3     1  UNL1       -0.0483
     14 C           7.3931   -0.4425    0.0000 C.2     1  UNL1       -0.0612
     15 C           3.8076   -3.5407    0.0000 C.3     1  UNL1        0.0267
     16 C           3.8242   -1.3853    0.0000 C.3     1  UNL1       -0.0403
     17 C           8.3393   -1.7472    0.0000 C.3     1  UNL1       -0.0397
     18 C           6.5271    0.0575    0.0000 C.3     1  UNL1       -0.0045
     19 C           7.1698   -2.7085    0.0000 C.3     1  UNL1       -0.0584
     20 C           4.7587   -0.9494    0.0000 C.3     1  UNL1       -0.0589
     21 C           8.3393   -0.1378    0.0000 C.2     1  UNL1       -0.0667
     22 C           7.7352   -2.3822    0.0000 C.3     1  UNL1       -0.0553
     23 C           8.9229   -0.9425    0.0000 C.3     1  UNL1       -0.0304
     24 C           2.8763   -1.9132    0.0000 C.3     1  UNL1        0.0069
     25 C           2.8680   -2.9982    0.0000 C.2     1  UNL1        0.1392
     26 C           3.3109   -4.4086    0.0000 C.3     1  UNL1       -0.0528
     27 C           4.3109   -4.4048    0.0000 C.3     1  UNL1       -0.0528
     28 C           8.6500    0.8128    0.0000 C.3     1  UNL1       -0.0190
     29 C           9.6285    1.0190    0.0000 C.3     1  UNL1       -0.0068
     30 C           7.9821    1.5570    0.0000 C.3     1  UNL1       -0.0586
     31 C           9.9391    1.9695    0.0000 C.3     1  UNL1        0.1323
     32 C          10.9176    2.1757    0.0000 C.3     1  UNL1        0.1245
     33 C          11.8682    1.8650    0.0000 C.3     1  UNL1        0.0941
     34 C          12.8467    2.0713    0.0000 C.3     1  UNL1       -0.0335
     35 C          11.5575    0.9145    0.0000 C.3     1  UNL1       -0.0335
     36 C           9.5820    3.6643    0.0000 C.2     1  UNL1        0.3043
     37 C           8.9141    4.4086    0.0000 C.3     1  UNL1        0.0332
     38 H           6.1980   -1.1325    0.0000 H       1  UNL1        0.0337
     39 H           4.7454   -3.6109    0.0000 H       1  UNL1        0.0315
     40 H           6.7612   -3.5644    0.0000 H       1  UNL1        0.0271
     41 H           7.1523   -2.8685    0.0000 H       1  UNL1        0.0271
     42 H           5.6610    0.1775    0.0000 H       1  UNL1        0.0599
     43 H           5.2478   -3.9877    0.0000 H       1  UNL1        0.0269
     44 H           6.0460   -3.9846    0.0000 H       1  UNL1        0.0269
     45 H           4.2324   -0.9186    0.0000 H       1  UNL1        0.0275
     46 H           3.4343   -0.9032    0.0000 H       1  UNL1        0.0275
     47 H           8.0883   -2.3141    0.0000 H       1  UNL1        0.0277
     48 H           8.8767   -2.0565    0.0000 H       1  UNL1        0.0277
     49 H           6.9256    0.5324    0.0000 H       1  UNL1        0.0335
     50 H           6.1285    0.5324    0.0000 H       1  UNL1        0.0335
     51 H           6.6949   -3.1071    0.0000 H       1  UNL1        0.0235
     52 H           7.5684   -3.1835    0.0000 H       1  UNL1        0.0235
     53 H           7.6448   -2.3100    0.0000 H       1  UNL1        0.0235
     54 H           5.3787   -0.9542    0.0000 H       1  UNL1        0.0235
     55 H           4.7635   -0.3294    0.0000 H       1  UNL1        0.0235
     56 H           4.1388   -0.9446    0.0000 H       1  UNL1        0.0235
     57 H           7.1526   -2.5943    0.0000 H       1  UNL1        0.0238
     58 H           7.9473   -2.9648    0.0000 H       1  UNL1        0.0238
     59 H           8.3178   -2.1700    0.0000 H       1  UNL1        0.0238
     60 H           9.3838   -1.3572    0.0000 H       1  UNL1        0.0310
     61 H           9.3838   -0.5278    0.0000 H       1  UNL1        0.0310
     62 H           2.6718   -1.3279    0.0000 H       1  UNL1        0.0342
     63 H           2.2647   -2.0146    0.0000 H       1  UNL1        0.0342
     64 H           2.7728   -4.1007    0.0000 H       1  UNL1        0.0239
     65 H           3.0030   -4.9467    0.0000 H       1  UNL1        0.0239
     66 H           3.8490   -4.7165    0.0000 H       1  UNL1        0.0239
     67 H           3.7752   -4.7168    0.0000 H       1  UNL1        0.0239
     68 H           4.6230   -4.9405    0.0000 H       1  UNL1        0.0239
     69 H           4.8466   -4.0927    0.0000 H       1  UNL1        0.0239
     70 H           8.0433    0.6849    0.0000 H       1  UNL1        0.0344
     71 H           4.7950    0.6775    0.0000 H       1  UNL1        0.2098
     72 H           9.6490    0.3993    0.0000 H       1  UNL1        0.0307
     73 H          10.2423    0.9316    0.0000 H       1  UNL1        0.0307
     74 H           8.4436    1.9711    0.0000 H       1  UNL1        0.0235
     75 H           7.5681    2.0185    0.0000 H       1  UNL1        0.0235
     76 H           7.5207    1.1430    0.0000 H       1  UNL1        0.0235
     77 H          10.1317    2.5588    0.0000 H       1  UNL1        0.0761
     78 H          10.6371    2.7286    0.0000 H       1  UNL1        0.0662
     79 H          12.9745    1.4646    0.0000 H       1  UNL1        0.0258
     80 H          13.4533    2.1991    0.0000 H       1  UNL1        0.0258
     81 H          12.7188    2.6779    0.0000 H       1  UNL1        0.0258
     82 H          10.9682    1.1071    0.0000 H       1  UNL1        0.0258
     83 H          11.3649    0.3252    0.0000 H       1  UNL1        0.0258
     84 H          12.1468    0.7219    0.0000 H       1  UNL1        0.0258
     85 H           9.3756    4.8227    0.0000 H       1  UNL1        0.0342
     86 H           8.5000    4.8701    0.0000 H       1  UNL1        0.0342
     87 H           8.4526    3.9946    0.0000 H       1  UNL1        0.0342
@<TRIPOS>BOND
     1     1    12    1
     2     1    71    1
     3     2    25    2
     4     3    32    1
     5     3    33    1
     6     4    31    1
     7     4    36    1
     8     5    36    2
     9     6     7    1
    10     6     9    1
    11     6    11    1
    12     6    19    1
    13     7     8    1
    14     7    12    1
    15     7    38    1
    16     8    10    1
    17     8    16    1
    18     8    20    1
    19     9    14    1
    20     9    17    1
    21     9    22    1
    22    10    13    1
    23    10    15    1
    24    10    39    1
    25    11    13    1
    26    11    40    1
    27    11    41    1
    28    12    18    1
    29    12    42    1
    30    13    43    1
    31    13    44    1
    32    14    18    1
    33    14    21    2
    34    15    25    1
    35    15    26    1
    36    15    27    1
    37    16    24    1
    38    16    45    1
    39    16    46    1
    40    17    23    1
    41    17    47    1
    42    17    48    1
    43    18    49    1
    44    18    50    1
    45    19    51    1
    46    19    52    1
    47    19    53    1
    48    20    54    1
    49    20    55    1
    50    20    56    1
    51    21    23    1
    52    21    28    1
    53    22    57    1
    54    22    58    1
    55    22    59    1
    56    23    60    1
    57    23    61    1
    58    24    25    1
    59    24    62    1
    60    24    63    1
    61    26    64    1
    62    26    65    1
    63    26    66    1
    64    27    67    1
    65    27    68    1
    66    27    69    1
    67    28    29    1
    68    28    30    1
    69    28    70    1
    70    29    31    1
    71    29    72    1
    72    29    73    1
    73    30    74    1
    74    30    75    1
    75    30    76    1
    76    31    32    1
    77    31    77    1
    78    32    33    1
    79    32    78    1
    80    33    34    1
    81    33    35    1
    82    34    79    1
    83    34    80    1
    84    34    81    1
    85    35    82    1
    86    35    83    1
    87    35    84    1
    88    36    37    1
    89    37    85    1
    90    37    86    1
    91    37    87    1
