@<TRIPOS>MOLECULE
IMPHY013017
 60 61 0 0 0
SMALL
GASTEIGER

@<TRIPOS>ATOM
      1 O           5.4641    1.2500    0.0000 O.3     1  UNL1       -0.4792
      2 O           3.7320    0.2500    0.0000 O.3     1  UNL1       -0.3835
      3 O           6.3301   -3.2500    0.0000 O.3     1  UNL1       -0.4913
      4 O           2.8660   -3.2500    0.0000 O.3     1  UNL1       -0.4913
      5 O           5.4641    3.2500    0.0000 O.3     1  UNL1       -0.4913
      6 O           7.1962    0.2500    0.0000 O.3     1  UNL1       -0.4913
      7 O           4.5981   -4.2500    0.0000 O.3     1  UNL1       -0.4885
      8 C           5.4641    0.2500    0.0000 C.3     1  UNL1        0.1276
      9 C           4.5981   -0.2500    0.0000 C.3     1  UNL1        0.1168
     10 C           4.5981   -1.2500    0.0000 C.ar    1  UNL1       -0.0085
     11 C           6.3301   -0.2500    0.0000 C.3     1  UNL1       -0.0250
     12 C           3.7320   -1.7500    0.0000 C.ar    1  UNL1       -0.0103
     13 C           5.4641   -1.7500    0.0000 C.ar    1  UNL1       -0.0103
     14 C           6.3301    1.7500    0.0000 C.ar    1  UNL1        0.2041
     15 C           5.4641   -2.7500    0.0000 C.ar    1  UNL1        0.1655
     16 C           3.7320   -2.7500    0.0000 C.ar    1  UNL1        0.1655
     17 C           4.5981   -3.2500    0.0000 C.ar    1  UNL1        0.2035
     18 C           6.3301    2.7500    0.0000 C.ar    1  UNL1        0.1655
     19 C           7.1962    1.2500    0.0000 C.ar    1  UNL1        0.1655
     20 C           8.0622    2.7500    0.0000 C.ar    1  UNL1       -0.0365
     21 C           7.1962    3.2500    0.0000 C.ar    1  UNL1       -0.0126
     22 C           8.0622    1.7500    0.0000 C.ar    1  UNL1       -0.0126
     23 C           8.9282    3.2500    0.0000 C.3     1  UNL1       -0.0095
     24 C           8.9282    4.2500    0.0000 C.2     1  UNL1       -0.0868
     25 C           7.1962   -2.7500    0.0000 C.3     1  UNL1        0.0790
     26 C           2.0000   -2.7500    0.0000 C.3     1  UNL1        0.0790
     27 C           5.4641    4.2500    0.0000 C.3     1  UNL1        0.0790
     28 C           8.0622   -0.2500    0.0000 C.3     1  UNL1        0.0790
     29 C           3.7320   -4.7500    0.0000 C.3     1  UNL1        0.0791
     30 C           9.7942    4.7500    0.0000 C.2     1  UNL1       -0.1023
     31 H           6.0010    0.5600    0.0000 H       1  UNL1        0.0760
     32 H           4.5981    0.3700    0.0000 H       1  UNL1        0.0681
     33 H           6.0201   -0.7869    0.0000 H       1  UNL1        0.0266
     34 H           6.8671   -0.5600    0.0000 H       1  UNL1        0.0266
     35 H           6.6401    0.2869    0.0000 H       1  UNL1        0.0266
     36 H           3.1951   -1.4400    0.0000 H       1  UNL1        0.0659
     37 H           6.0010   -1.4400    0.0000 H       1  UNL1        0.0659
     38 H           3.7320    0.8700    0.0000 H       1  UNL1        0.2104
     39 H           7.1962    3.8700    0.0000 H       1  UNL1        0.0658
     40 H           8.5991    1.4400    0.0000 H       1  UNL1        0.0658
     41 H           9.1403    2.6674    0.0000 H       1  UNL1        0.0355
     42 H           9.5388    3.3577    0.0000 H       1  UNL1        0.0355
     43 H           8.3913    4.5600    0.0000 H       1  UNL1        0.0570
     44 H           7.5062   -3.2869    0.0000 H       1  UNL1        0.0660
     45 H           7.7331   -2.4400    0.0000 H       1  UNL1        0.0660
     46 H           6.8862   -2.2131    0.0000 H       1  UNL1        0.0660
     47 H           2.3100   -2.2131    0.0000 H       1  UNL1        0.0660
     48 H           1.4631   -2.4400    0.0000 H       1  UNL1        0.0660
     49 H           1.6900   -3.2869    0.0000 H       1  UNL1        0.0660
     50 H           6.0841    4.2500    0.0000 H       1  UNL1        0.0660
     51 H           5.4641    4.8700    0.0000 H       1  UNL1        0.0660
     52 H           4.8441    4.2500    0.0000 H       1  UNL1        0.0660
     53 H           7.7522   -0.7869    0.0000 H       1  UNL1        0.0660
     54 H           8.5991   -0.5600    0.0000 H       1  UNL1        0.0660
     55 H           8.3722    0.2869    0.0000 H       1  UNL1        0.0660
     56 H           3.4220   -4.2131    0.0000 H       1  UNL1        0.0660
     57 H           3.1951   -5.0600    0.0000 H       1  UNL1        0.0660
     58 H           4.0420   -5.2869    0.0000 H       1  UNL1        0.0660
     59 H          10.3312    4.4400    0.0000 H       1  UNL1        0.0532
     60 H           9.7942    5.3700    0.0000 H       1  UNL1        0.0532
@<TRIPOS>BOND
     1     1     8    1
     2     1    14    1
     3     2     9    1
     4     2    38    1
     5     3    15    1
     6     3    25    1
     7     4    16    1
     8     4    26    1
     9     5    18    1
    10     5    27    1
    11     6    19    1
    12     6    28    1
    13     7    17    1
    14     7    29    1
    15     8     9    1
    16     8    11    1
    17     8    31    1
    18     9    10    1
    19     9    32    1
    20    10    12   ar
    21    10    13   ar
    22    11    33    1
    23    11    34    1
    24    11    35    1
    25    12    16   ar
    26    12    36    1
    27    13    15   ar
    28    13    37    1
    29    14    18   ar
    30    14    19   ar
    31    15    17   ar
    32    16    17   ar
    33    18    21   ar
    34    19    22   ar
    35    20    21   ar
    36    20    22   ar
    37    20    23    1
    38    21    39    1
    39    22    40    1
    40    23    24    1
    41    23    41    1
    42    23    42    1
    43    24    30    2
    44    24    43    1
    45    25    44    1
    46    25    45    1
    47    25    46    1
    48    26    47    1
    49    26    48    1
    50    26    49    1
    51    27    50    1
    52    27    51    1
    53    27    52    1
    54    28    53    1
    55    28    54    1
    56    28    55    1
    57    29    56    1
    58    29    57    1
    59    29    58    1
    60    30    59    1
    61    30    60    1
