@<TRIPOS>MOLECULE
IMPHY006956
 54 58 0 0 0
SMALL
GASTEIGER

@<TRIPOS>ATOM
      1 O           3.4112    0.4115    0.0000 O.3     1  UNL1       -0.3496
      2 O           2.0949   -0.9211    0.0000 O.3     1  UNL1       -0.4568
      3 O           4.3500    1.7150    0.0000 O.3     1  UNL1       -0.3662
      4 O           6.0184   -2.4452    0.0000 O.3     1  UNL1       -0.3877
      5 O           6.4433    0.0619    0.0000 O.3     1  UNL1       -0.4566
      6 O           2.0000   -2.6949    0.0000 O.2     1  UNL1       -0.2453
      7 O           7.8932    3.0617    0.0000 O.2     1  UNL1       -0.4706
      8 O           8.1491    0.3627    0.0000 O.2     1  UNL1       -0.2511
      9 C           3.6979   -0.7540    0.0000 C.3     1  UNL1        0.0667
     10 C           4.5640   -0.2540    0.0000 C.3     1  UNL1       -0.0089
     11 C           4.5640    0.7460    0.0000 C.3     1  UNL1        0.0499
     12 C           2.8319   -0.2540    0.0000 C.3     1  UNL1        0.1192
     13 C           5.3326   -0.8748    0.0000 C.3     1  UNL1       -0.0184
     14 C           3.4948   -0.3841    0.0000 C.3     1  UNL1        0.0642
     15 C           3.4887   -1.7259    0.0000 C.2     1  UNL1        0.0472
     16 C           3.6979    1.2459    0.0000 C.2     1  UNL1       -0.0618
     17 C           2.8319    0.7460    0.0000 C.3     1  UNL1        0.0069
     18 C           4.1420    0.7369    0.0000 C.3     1  UNL1        0.1658
     19 C           5.3300    1.3887    0.0000 C.3     1  UNL1        0.0030
     20 C           5.2109   -1.8554    0.0000 C.3     1  UNL1        0.0744
     21 C           4.3138   -2.2694    0.0000 C.2     1  UNL1       -0.0452
     22 C           2.5000   -1.8289    0.0000 C.2     1  UNL1        0.3360
     23 C           6.2697    1.0467    0.0000 C.3     1  UNL1        0.1319
     24 C           3.6979    2.2460    0.0000 C.2     1  UNL1       -0.0986
     25 C           7.0357    1.6895    0.0000 C.ar    1  UNL1        0.0304
     26 C           8.0060    1.4476    0.0000 C.ar    1  UNL1       -0.0172
     27 C           6.9660    2.6871    0.0000 C.ar    1  UNL1        0.0983
     28 C           7.3830   -0.2801    0.0000 C.2     1  UNL1        0.3045
     29 C           8.5360    2.2956    0.0000 C.ar    1  UNL1        0.0921
     30 C           7.5567   -1.2649    0.0000 C.3     1  UNL1        0.0333
     31 H           5.1234    0.0132    0.0000 H       1  UNL1        0.0322
     32 H           2.2652   -0.0026    0.0000 H       1  UNL1        0.0747
     33 H           5.9233   -1.0632    0.0000 H       1  UNL1        0.0296
     34 H           5.6266   -0.3290    0.0000 H       1  UNL1        0.0296
     35 H           2.9001   -0.2090    0.0000 H       1  UNL1        0.0571
     36 H           4.0865   -0.1989    0.0000 H       1  UNL1        0.0571
     37 H           2.6198    1.3286    0.0000 H       1  UNL1        0.0346
     38 H           2.2213    0.6383    0.0000 H       1  UNL1        0.0346
     39 H           3.6602    1.1271    0.0000 H       1  UNL1        0.0916
     40 H           5.6400    1.9257    0.0000 H       1  UNL1        0.0314
     41 H           4.8550    1.7873    0.0000 H       1  UNL1        0.0314
     42 H           5.7800   -1.6092    0.0000 H       1  UNL1        0.0638
     43 H           4.2673   -2.8876    0.0000 H       1  UNL1        0.0603
     44 H           5.7947    0.6482    0.0000 H       1  UNL1        0.0786
     45 H           4.2349    2.5560    0.0000 H       1  UNL1        0.0535
     46 H           3.1610    2.5560    0.0000 H       1  UNL1        0.0535
     47 H           4.8385    2.0967    0.0000 H       1  UNL1        0.2125
     48 H           5.9520   -3.0617    0.0000 H       1  UNL1        0.2102
     49 H           8.2383    0.8727    0.0000 H       1  UNL1        0.0653
     50 H           6.4402    3.0156    0.0000 H       1  UNL1        0.1033
     51 H           9.1544    2.3389    0.0000 H       1  UNL1        0.1029
     52 H           6.9461   -1.3726    0.0000 H       1  UNL1        0.0342
     53 H           7.6643   -1.8755    0.0000 H       1  UNL1        0.0342
     54 H           8.1673   -1.1572    0.0000 H       1  UNL1        0.0342
@<TRIPOS>BOND
     1     1    14    1
     2     1    18    1
     3     2    12    1
     4     2    22    1
     5     3    18    1
     6     3    47    1
     7     4    20    1
     8     4    48    1
     9     5    23    1
    10     5    28    1
    11     6    22    2
    12     7    27   ar
    13     7    29   ar
    14     8    28    2
    15     9    10    1
    16     9    12    1
    17     9    14    1
    18     9    15    1
    19    10    11    1
    20    10    13    1
    21    10    31    1
    22    11    16    1
    23    11    18    1
    24    11    19    1
    25    12    17    1
    26    12    32    1
    27    13    20    1
    28    13    33    1
    29    13    34    1
    30    14    35    1
    31    14    36    1
    32    15    21    2
    33    15    22    1
    34    16    17    1
    35    16    24    2
    36    17    37    1
    37    17    38    1
    38    18    39    1
    39    19    23    1
    40    19    40    1
    41    19    41    1
    42    20    21    1
    43    20    42    1
    44    21    43    1
    45    23    25    1
    46    23    44    1
    47    24    45    1
    48    24    46    1
    49    25    26   ar
    50    25    27   ar
    51    26    29   ar
    52    26    49    1
    53    27    50    1
    54    28    30    1
    55    29    51    1
    56    30    52    1
    57    30    53    1
    58    30    54    1
