@<TRIPOS>MOLECULE
IMPHY012106
 30 33 0 0 0
SMALL
GASTEIGER

@<TRIPOS>ATOM
      1 C           4.6660    0.2182    0.0000 C.ar    1  UNL1       -0.0096
      2 C           5.5321   -0.2818    0.0000 C.ar    1  UNL1       -0.0096
      3 C           3.8000   -0.2818    0.0000 C.ar    1  UNL1       -0.0102
      4 C           6.4421    0.2251    0.0000 C.ar    1  UNL1       -0.0102
      5 C           3.8000   -1.2818    0.0000 C.ar    1  UNL1       -0.0173
      6 C           6.4501    1.2667    0.0000 C.ar    1  UNL1       -0.0173
      7 C           4.6500    1.2598    0.0000 C.ar    1  UNL1       -0.0529
      8 C           5.5321   -1.2818    0.0000 C.ar    1  UNL1       -0.0529
      9 C           5.5480    1.7875    0.0000 C.ar    1  UNL1       -0.0534
     10 C           4.6660   -1.7818    0.0000 C.ar    1  UNL1       -0.0534
     11 C           2.9061    0.2529    0.0000 C.ar    1  UNL1       -0.0534
     12 C           7.3689   -0.3390    0.0000 C.ar    1  UNL1       -0.0534
     13 C           2.9061   -1.8164    0.0000 C.ar    1  UNL1       -0.0540
     14 C           7.3855    1.8164    0.0000 C.ar    1  UNL1       -0.0540
     15 C           2.0000   -0.2609    0.0000 C.ar    1  UNL1       -0.0611
     16 C           8.3168    0.1890    0.0000 C.ar    1  UNL1       -0.0611
     17 C           2.0000   -1.3026    0.0000 C.ar    1  UNL1       -0.0612
     18 C           8.3252    1.2739    0.0000 C.ar    1  UNL1       -0.0612
     19 H           4.1095    1.5635    0.0000 H       1  UNL1        0.0624
     20 H           6.0690   -1.5918    0.0000 H       1  UNL1        0.0624
     21 H           5.5456    2.4075    0.0000 H       1  UNL1        0.0624
     22 H           4.6660   -2.4018    0.0000 H       1  UNL1        0.0624
     23 H           2.9132    0.8729    0.0000 H       1  UNL1        0.0624
     24 H           7.3570   -0.9589    0.0000 H       1  UNL1        0.0624
     25 H           2.9132   -2.4364    0.0000 H       1  UNL1        0.0624
     26 H           7.3831    2.4364    0.0000 H       1  UNL1        0.0624
     27 H           1.4643    0.0511    0.0000 H       1  UNL1        0.0618
     28 H           8.8501   -0.1272    0.0000 H       1  UNL1        0.0618
     29 H           1.4643   -1.6146    0.0000 H       1  UNL1        0.0618
     30 H           8.8633    1.5818    0.0000 H       1  UNL1        0.0618
@<TRIPOS>BOND
     1     1     2   ar
     2     1     3   ar
     3     1     7   ar
     4     2     4   ar
     5     2     8   ar
     6     3     5   ar
     7     3    11   ar
     8     4     6   ar
     9     4    12   ar
    10     5    10   ar
    11     5    13   ar
    12     6     9   ar
    13     6    14   ar
    14     7     9   ar
    15     7    19    1
    16     8    10   ar
    17     8    20    1
    18     9    21    1
    19    10    22    1
    20    11    15   ar
    21    11    23    1
    22    12    16   ar
    23    12    24    1
    24    13    17   ar
    25    13    25    1
    26    14    18   ar
    27    14    26    1
    28    15    17   ar
    29    15    27    1
    30    16    18   ar
    31    16    28    1
    32    17    29    1
    33    18    30    1
