@<TRIPOS>MOLECULE
IMPHY016813
 25 24 0 0 0
SMALL
GASTEIGER

@<TRIPOS>ATOM
      1 O           8.0622    0.0000    0.0000 O.co2   1  UNL1       -0.5813
      2 O           7.1962    1.5000    0.0000 O.2     1  UNL1        0.0349
      3 O           2.8660   -0.0000    0.0000 O.3     1  UNL1       -0.4679
      4 O           3.7320   -1.5000    0.0000 O.2     1  UNL1       -0.2509
      5 N           7.1962    0.5000    0.0000 N.pl3   1  UNL1        0.0436
      6 C           6.3301    0.0000    0.0000 C.3     1  UNL1        0.2212
      7 C           5.4641   -0.5000    0.0000 C.3     1  UNL1        0.0274
      8 C           5.8301    0.8660    0.0000 C.3     1  UNL1        0.0058
      9 C           6.8301   -0.8660    0.0000 C.3     1  UNL1        0.0058
     10 C           4.5981   -0.0000    0.0000 C.3     1  UNL1        0.0514
     11 C           3.7320   -0.5000    0.0000 C.2     1  UNL1        0.3071
     12 C           2.0000   -0.5000    0.0000 C.3     1  UNL1        0.0817
     13 H           5.0656   -0.9749    0.0000 H       1  UNL1        0.0339
     14 H           5.8626   -0.9749    0.0000 H       1  UNL1        0.0339
     15 H           6.3671    1.1760    0.0000 H       1  UNL1        0.0298
     16 H           5.5201    1.4030    0.0000 H       1  UNL1        0.0298
     17 H           5.2932    0.5560    0.0000 H       1  UNL1        0.0298
     18 H           6.2932   -1.1760    0.0000 H       1  UNL1        0.0298
     19 H           7.1401   -1.4030    0.0000 H       1  UNL1        0.0298
     20 H           7.3671   -0.5560    0.0000 H       1  UNL1        0.0298
     21 H           4.9966    0.4749    0.0000 H       1  UNL1        0.0380
     22 H           4.1996    0.4749    0.0000 H       1  UNL1        0.0380
     23 H           1.6900    0.0369    0.0000 H       1  UNL1        0.0661
     24 H           1.4631   -0.8100    0.0000 H       1  UNL1        0.0661
     25 H           2.3100   -1.0369    0.0000 H       1  UNL1        0.0661
@<TRIPOS>UNITY_ATOM_ATTR
1 1
charge -1
5 1
charge 1
@<TRIPOS>BOND
     1     1     5    1
     2     2     5    2
     3     3    11    1
     4     3    12    1
     5     4    11    2
     6     5     6    1
     7     6     7    1
     8     6     8    1
     9     6     9    1
    10     7    10    1
    11     7    13    1
    12     7    14    1
    13     8    15    1
    14     8    16    1
    15     8    17    1
    16     9    18    1
    17     9    19    1
    18     9    20    1
    19    10    11    1
    20    10    21    1
    21    10    22    1
    22    12    23    1
    23    12    24    1
    24    12    25    1
