@<TRIPOS>MOLECULE
IMPHY015297
 27 27 0 0 0
SMALL
GASTEIGER

@<TRIPOS>ATOM
      1 O           3.7320    1.2500    0.0000 O.3     1  UNL1       -0.4643
      2 O           5.4641    1.2500    0.0000 O.2     1  UNL1       -0.2509
      3 C           2.8660   -0.2500    0.0000 C.3     1  UNL1        0.0067
      4 C           2.8660   -1.2500    0.0000 C.ar    1  UNL1       -0.0442
      5 C           3.7320    0.2500    0.0000 C.3     1  UNL1        0.0964
      6 C           2.0000   -1.7500    0.0000 C.ar    1  UNL1       -0.0585
      7 C           3.7320   -1.7500    0.0000 C.ar    1  UNL1       -0.0585
      8 C           4.5981    2.7500    0.0000 C.3     1  UNL1        0.0421
      9 C           2.0000   -2.7500    0.0000 C.ar    1  UNL1       -0.0615
     10 C           3.7320   -2.7500    0.0000 C.ar    1  UNL1       -0.0615
     11 C           4.5981    1.7500    0.0000 C.2     1  UNL1        0.3068
     12 C           2.8660   -3.2500    0.0000 C.ar    1  UNL1       -0.0617
     13 C           5.4641    3.2500    0.0000 C.3     1  UNL1       -0.0552
     14 H           2.6540    0.3326    0.0000 H       1  UNL1        0.0346
     15 H           2.2554   -0.3577    0.0000 H       1  UNL1        0.0346
     16 H           3.9441   -0.3326    0.0000 H       1  UNL1        0.0701
     17 H           4.3426    0.3577    0.0000 H       1  UNL1        0.0701
     18 H           1.4631   -1.4400    0.0000 H       1  UNL1        0.0620
     19 H           4.2690   -1.4400    0.0000 H       1  UNL1        0.0620
     20 H           4.3860    3.3326    0.0000 H       1  UNL1        0.0375
     21 H           3.9875    2.6423    0.0000 H       1  UNL1        0.0375
     22 H           1.4631   -3.0600    0.0000 H       1  UNL1        0.0618
     23 H           4.2690   -3.0600    0.0000 H       1  UNL1        0.0618
     24 H           2.8660   -3.8700    0.0000 H       1  UNL1        0.0618
     25 H           5.7741    2.7131    0.0000 H       1  UNL1        0.0235
     26 H           6.0010    3.5600    0.0000 H       1  UNL1        0.0235
     27 H           5.1541    3.7869    0.0000 H       1  UNL1        0.0235
@<TRIPOS>BOND
     1     1     5    1
     2     1    11    1
     3     2    11    2
     4     3     4    1
     5     3     5    1
     6     3    14    1
     7     3    15    1
     8     4     6   ar
     9     4     7   ar
    10     5    16    1
    11     5    17    1
    12     6     9   ar
    13     6    18    1
    14     7    10   ar
    15     7    19    1
    16     8    11    1
    17     8    13    1
    18     8    20    1
    19     8    21    1
    20     9    12   ar
    21     9    22    1
    22    10    12   ar
    23    10    23    1
    24    12    24    1
    25    13    25    1
    26    13    26    1
    27    13    27    1
