@<TRIPOS>MOLECULE
IMPHY010745
 18 20 0 0 0
SMALL
GASTEIGER

@<TRIPOS>ATOM
      1 O           2.8891   -0.1944    0.0000 O.3     1  UNL1       -0.4469
      2 O           3.2486    2.1664    0.0000 O.3     1  UNL1       -0.2220
      3 O           2.0000   -1.6688    0.0000 O.2     1  UNL1       -0.2453
      4 C           4.6146   -0.1996    0.0000 C.3     1  UNL1        0.0469
      5 C           5.4806    0.3004    0.0000 C.3     1  UNL1        0.0040
      6 C           3.7486    0.3004    0.0000 C.3     1  UNL1        0.1969
      7 C           4.5986   -1.2411    0.0000 C.3     1  UNL1        0.0322
      8 C           6.3907   -0.2065    0.0000 C.3     1  UNL1        0.0001
      9 C           3.7486    1.3004    0.0000 C.3     1  UNL1        0.1631
     10 C           5.4806    1.3004    0.0000 C.3     1  UNL1        0.0028
     11 C           5.4966   -1.7689    0.0000 C.3     1  UNL1        0.0047
     12 C           4.6146    1.8004    0.0000 C.3     1  UNL1        0.0340
     13 C           6.3987   -1.2481    0.0000 C.3     1  UNL1        0.0003
     14 C           3.7214   -1.7039    0.0000 C.2     1  UNL1        0.0532
     15 C           7.2508    0.3035    0.0000 C.3     1  UNL1        0.0000
     16 C           2.7486    1.3004    0.0000 C.3     1  UNL1        0.0367
     17 C           2.8757   -1.1860    0.0000 C.2     1  UNL1        0.3371
     18 C           3.6895   -2.7034    0.0000 C.2     1  UNL1        0.0020
@<TRIPOS>BOND
     1     1     6    1
     2     1    17    1
     3     2     9    1
     4     3    17    2
     5     4     5    1
     6     4     6    1
     7     4     7    1
     8     5     8    1
     9     5    10    1
    10     6     9    1
    11     7    11    1
    12     7    14    1
    13     8    13    1
    14     8    15    1
    15     9    12    1
    16     9    16    1
    17    10    12    1
    18    11    13    1
    19    14    17    1
    20    14    18    2
