@<TRIPOS>MOLECULE
IMPHY000851
 95 100 0 0 0
SMALL
GASTEIGER

@<TRIPOS>ATOM
      1 O           6.8530   -0.5017    0.0000 O.3     1  UNL1       -0.4552
      2 O           6.8368   -2.5933    0.0000 O.3     1  UNL1       -0.3876
      3 O          15.7619    0.4932    0.0000 O.3     1  UNL1       -0.4802
      4 O          14.9075   -1.0134    0.0000 O.2     1  UNL1       -0.2504
      5 O           5.9697   -1.9916    0.0000 O.2     1  UNL1       -0.2449
      6 O           2.5405    1.0483    0.0000 O.3     1  UNL1       -0.5068
      7 C          10.4979   -0.5410    0.0000 C.3     1  UNL1       -0.0261
      8 C           9.5879   -1.0478    0.0000 C.3     1  UNL1       -0.0216
      9 C          11.3639   -1.0410    0.0000 C.3     1  UNL1       -0.0072
     10 C           9.5798   -2.0894    0.0000 C.3     1  UNL1       -0.0276
     11 C          12.2299    0.4590    0.0000 C.3     1  UNL1       -0.0067
     12 C          12.2299   -0.5410    0.0000 C.2     1  UNL1       -0.0611
     13 C          13.1239    0.9937    0.0000 C.3     1  UNL1       -0.0154
     14 C          10.4979    0.4590    0.0000 C.3     1  UNL1       -0.0481
     15 C          11.3800   -2.0825    0.0000 C.3     1  UNL1       -0.0433
     16 C           8.6444   -2.6391    0.0000 C.3     1  UNL1       -0.0021
     17 C          10.4819   -2.6102    0.0000 C.3     1  UNL1       -0.0483
     18 C          11.3639    0.9590    0.0000 C.3     1  UNL1       -0.0433
     19 C           8.6610   -0.4837    0.0000 C.3     1  UNL1       -0.0072
     20 C          14.0299    0.4799    0.0000 C.3     1  UNL1        0.0746
     21 C           7.7048   -2.0966    0.0000 C.3     1  UNL1        0.0974
     22 C           7.7132   -1.0117    0.0000 C.3     1  UNL1        0.1301
     23 C           9.5956   -0.0478    0.0000 C.3     1  UNL1       -0.0589
     24 C          13.0988    2.0784    0.0000 C.3     1  UNL1       -0.0432
     25 C          12.2299   -1.5410    0.0000 C.3     1  UNL1       -0.0556
     26 C          14.0299   -0.5618    0.0000 C.3     1  UNL1       -0.0184
     27 C          13.1239   -1.0756    0.0000 C.2     1  UNL1       -0.0827
     28 C          12.2299    1.4590    0.0000 C.3     1  UNL1       -0.0555
     29 C          14.0299    2.6353    0.0000 C.3     1  UNL1       -0.0345
     30 C          14.9737    1.0151    0.0000 C.3     1  UNL1       -0.0362
     31 C          14.9737    2.1001    0.0000 C.3     1  UNL1       -0.0468
     32 C           8.1478   -3.5071    0.0000 C.3     1  UNL1       -0.0571
     33 C           9.1478   -3.5032    0.0000 C.3     1  UNL1       -0.0571
     34 C          14.8998   -0.0135    0.0000 C.2     1  UNL1        0.3115
     35 C          14.5199    3.5071    0.0000 C.3     1  UNL1       -0.0598
     36 C          13.5200    3.4955    0.0000 C.3     1  UNL1       -0.0598
     37 C           5.9812   -0.9916    0.0000 C.2     1  UNL1        0.3395
     38 C           5.1210   -0.4817    0.0000 C.ar    1  UNL1        0.0592
     39 C           5.1326    0.5183    0.0000 C.ar    1  UNL1       -0.0443
     40 C           4.2493   -0.9716    0.0000 C.ar    1  UNL1       -0.0443
     41 C           4.2724    1.0283    0.0000 C.ar    1  UNL1       -0.0194
     42 C           3.3891   -0.4616    0.0000 C.ar    1  UNL1       -0.0194
     43 C           3.4007    0.5383    0.0000 C.ar    1  UNL1        0.1169
     44 H          11.0348   -0.2310    0.0000 H       1  UNL1        0.0314
     45 H           9.5822   -2.7094    0.0000 H       1  UNL1        0.0312
     46 H          13.6560    1.3119    0.0000 H       1  UNL1        0.0320
     47 H          10.2858    1.0416    0.0000 H       1  UNL1        0.0269
     48 H           9.8873    0.3514    0.0000 H       1  UNL1        0.0269
     49 H          11.5980   -2.6629    0.0000 H       1  UNL1        0.0274
     50 H          11.9891   -1.9670    0.0000 H       1  UNL1        0.0274
     51 H          10.0846   -3.0862    0.0000 H       1  UNL1        0.0269
     52 H          10.8829   -3.0831    0.0000 H       1  UNL1        0.0269
     53 H          11.7624    1.4340    0.0000 H       1  UNL1        0.0274
     54 H          10.9654    1.4340    0.0000 H       1  UNL1        0.0274
     55 H           9.0692   -0.0171    0.0000 H       1  UNL1        0.0307
     56 H           8.2711   -0.0017    0.0000 H       1  UNL1        0.0307
     57 H           7.7036   -2.7166    0.0000 H       1  UNL1        0.0636
     58 H           7.1733   -1.3165    0.0000 H       1  UNL1        0.0760
     59 H          10.2156   -0.0526    0.0000 H       1  UNL1        0.0235
     60 H           9.6004    0.5721    0.0000 H       1  UNL1        0.0235
     61 H           8.9756   -0.0431    0.0000 H       1  UNL1        0.0235
     62 H          12.8763    2.6571    0.0000 H       1  UNL1        0.0274
     63 H          12.4905    1.9582    0.0000 H       1  UNL1        0.0274
     64 H          11.9199   -2.0779    0.0000 H       1  UNL1        0.0238
     65 H          12.7669   -1.8510    0.0000 H       1  UNL1        0.0238
     66 H          12.5399   -1.0040    0.0000 H       1  UNL1        0.0238
     67 H          14.2390   -1.1455    0.0000 H       1  UNL1        0.0318
     68 H          14.6408   -0.4557    0.0000 H       1  UNL1        0.0318
     69 H          13.1167   -1.6956    0.0000 H       1  UNL1        0.0572
     70 H          12.8499    1.4590    0.0000 H       1  UNL1        0.0238
     71 H          12.2299    2.0790    0.0000 H       1  UNL1        0.0238
     72 H          11.6099    1.4590    0.0000 H       1  UNL1        0.0238
     73 H          15.1828    0.4314    0.0000 H       1  UNL1        0.0276
     74 H          15.5846    1.1212    0.0000 H       1  UNL1        0.0276
     75 H          15.5846    1.9940    0.0000 H       1  UNL1        0.0271
     76 H          15.1828    2.6838    0.0000 H       1  UNL1        0.0271
     77 H           7.6096   -3.1992    0.0000 H       1  UNL1        0.0236
     78 H           8.6120   -3.8153    0.0000 H       1  UNL1        0.0236
     79 H           9.4598   -4.0390    0.0000 H       1  UNL1        0.0236
     80 H           9.6835   -3.1912    0.0000 H       1  UNL1        0.0236
     81 H           7.8398   -4.0452    0.0000 H       1  UNL1        0.0236
     82 H           8.6859   -3.8150    0.0000 H       1  UNL1        0.0236
     83 H          14.0533    3.8117    0.0000 H       1  UNL1        0.0235
     84 H          13.2038    4.0288    0.0000 H       1  UNL1        0.0235
     85 H          12.9866    3.1793    0.0000 H       1  UNL1        0.0235
     86 H          15.0604    3.2033    0.0000 H       1  UNL1        0.0235
     87 H          14.8237    4.0476    0.0000 H       1  UNL1        0.0235
     88 H          13.9794    3.8108    0.0000 H       1  UNL1        0.0235
     89 H           6.8345   -3.2133    0.0000 H       1  UNL1        0.2100
     90 H          16.3013    0.1874    0.0000 H       1  UNL1        0.2951
     91 H           5.6731    0.8220    0.0000 H       1  UNL1        0.0627
     92 H           4.2421   -1.5916    0.0000 H       1  UNL1        0.0627
     93 H           4.2796    1.6482    0.0000 H       1  UNL1        0.0654
     94 H           2.8486   -0.7654    0.0000 H       1  UNL1        0.0654
     95 H           2.0000    0.7445    0.0000 H       1  UNL1        0.2921
@<TRIPOS>BOND
     1    22     1    1
     2     1    37    1
     3    21     2    1
     4     2    89    1
     5     3    34    1
     6     3    90    1
     7     4    34    2
     8     5    37    2
     9     6    43    1
    10     6    95    1
    11     7     8    1
    12     7     9    1
    13     7    14    1
    14     7    44    1
    15     8    10    1
    16     8    19    1
    17     8    23    1
    18     9    12    1
    19     9    15    1
    20     9    25    1
    21    10    16    1
    22    10    17    1
    23    10    45    1
    24    11    12    1
    25    11    13    1
    26    11    18    1
    27    11    28    1
    28    12    27    2
    29    13    20    1
    30    13    24    1
    31    13    46    1
    32    14    18    1
    33    14    47    1
    34    14    48    1
    35    15    17    1
    36    15    49    1
    37    15    50    1
    38    16    21    1
    39    16    32    1
    40    16    33    1
    41    17    51    1
    42    17    52    1
    43    18    53    1
    44    18    54    1
    45    19    22    1
    46    19    55    1
    47    19    56    1
    48    20    26    1
    49    20    30    1
    50    20    34    1
    51    21    22    1
    52    21    57    1
    53    22    58    1
    54    23    59    1
    55    23    60    1
    56    23    61    1
    57    24    29    1
    58    24    62    1
    59    24    63    1
    60    25    64    1
    61    25    65    1
    62    25    66    1
    63    26    27    1
    64    26    67    1
    65    26    68    1
    66    27    69    1
    67    28    70    1
    68    28    71    1
    69    28    72    1
    70    29    31    1
    71    29    35    1
    72    29    36    1
    73    30    31    1
    74    30    73    1
    75    30    74    1
    76    31    75    1
    77    31    76    1
    78    32    77    1
    79    32    81    1
    80    32    82    1
    81    33    78    1
    82    33    79    1
    83    33    80    1
    84    35    86    1
    85    35    87    1
    86    35    88    1
    87    36    83    1
    88    36    84    1
    89    36    85    1
    90    37    38    1
    91    38    39   ar
    92    38    40   ar
    93    39    41   ar
    94    39    91    1
    95    40    42   ar
    96    40    92    1
    97    41    43   ar
    98    41    93    1
    99    42    43   ar
   100    42    94    1
