@<TRIPOS>MOLECULE
IMPHY002037
 91 95 0 0 0
SMALL
GASTEIGER

@<TRIPOS>ATOM
      1 O           8.5991   -3.1282    0.0000 O.3     1  UNL1       -0.3302
      2 O           6.8116    0.8586    0.0000 O.3     1  UNL1       -0.3302
      3 O          10.3312   -3.1282    0.0000 O.3     1  UNL1       -0.4515
      4 O           7.6950   -0.6313    0.0000 O.3     1  UNL1       -0.4598
      5 O           6.8671   -5.1282    0.0000 O.3     1  UNL1       -0.3864
      6 O           8.5991   -6.1282    0.0000 O.3     1  UNL1       -0.3864
      7 O           4.2080    1.3285    0.0000 O.3     1  UNL1       -0.3864
      8 O           4.2311   -0.6714    0.0000 O.3     1  UNL1       -0.3864
      9 O          10.3312   -5.1282    0.0000 O.3     1  UNL1       -0.3829
     10 O           5.9746   -1.6513    0.0000 O.3     1  UNL1       -0.3829
     11 O           6.0010   -3.6282    0.0000 O.3     1  UNL1       -0.4616
     12 O           5.0566    2.8384    0.0000 O.3     1  UNL1       -0.4616
     13 O          11.1972   -0.6282    0.0000 O.2     1  UNL1       -0.1997
     14 O           9.4530    2.4411    0.0000 O.3     1  UNL1       -0.5063
     15 O           5.1350   -2.1282    0.0000 O.2     1  UNL1       -0.2502
     16 O           5.9052    4.3483    0.0000 O.2     1  UNL1       -0.2502
     17 O          14.6613   -1.6282    0.0000 O.3     1  UNL1       -0.5032
     18 O          12.9292   -4.6282    0.0000 O.3     1  UNL1       -0.5032
     19 O          14.6613   -3.6282    0.0000 O.3     1  UNL1       -0.5009
     20 O           2.5369   -3.6282    0.0000 O.3     1  UNL1       -0.4802
     21 O           3.2900    5.8182    0.0000 O.3     1  UNL1       -0.4802
     22 O           3.4030   -2.1282    0.0000 O.2     1  UNL1       -0.2504
     23 O           5.0219    5.8382    0.0000 O.2     1  UNL1       -0.2504
     24 C           7.7331   -4.6282    0.0000 C.3     1  UNL1        0.1130
     25 C           8.5991   -5.1282    0.0000 C.3     1  UNL1        0.1152
     26 C           5.0797    0.8386    0.0000 C.3     1  UNL1        0.1130
     27 C           5.0913   -0.1614    0.0000 C.3     1  UNL1        0.1152
     28 C           7.7331   -3.6282    0.0000 C.3     1  UNL1        0.1250
     29 C           9.4651   -4.6282    0.0000 C.3     1  UNL1        0.1454
     30 C           5.9399    1.3485    0.0000 C.3     1  UNL1        0.1250
     31 C           5.9630   -0.6513    0.0000 C.3     1  UNL1        0.1454
     32 C           9.4651   -3.6282    0.0000 C.3     1  UNL1        0.2313
     33 C           6.8232   -0.1413    0.0000 C.3     1  UNL1        0.2309
     34 C           6.8671   -3.1282    0.0000 C.3     1  UNL1        0.1212
     35 C           5.9283    2.3485    0.0000 C.3     1  UNL1        0.1212
     36 C           8.5551   -0.1213    0.0000 C.ar    1  UNL1        0.1437
     37 C          10.3312   -2.1282    0.0000 C.ar    1  UNL1        0.2288
     38 C           9.4651   -0.6282    0.0000 C.ar    1  UNL1        0.1245
     39 C           9.4651   -1.6282    0.0000 C.ar    1  UNL1        0.0093
     40 C          11.1972   -1.6282    0.0000 C.ar    1  UNL1        0.4047
     41 C          10.3312   -0.1282    0.0000 C.ar    1  UNL1        0.3708
     42 C           8.5471    0.9203    0.0000 C.ar    1  UNL1        0.0229
     43 C          10.3472    0.9133    0.0000 C.ar    1  UNL1        0.0847
     44 C           9.4492    1.4411    0.0000 C.ar    1  UNL1        0.1293
     45 C          12.0632   -2.1282    0.0000 C.ar    1  UNL1        0.0899
     46 C           5.1350   -3.1282    0.0000 C.2     1  UNL1        0.3180
     47 C           5.0450    3.8384    0.0000 C.2     1  UNL1        0.3180
     48 C           4.2690   -3.6282    0.0000 C.3     1  UNL1        0.1418
     49 C           4.1733    4.3283    0.0000 C.3     1  UNL1        0.1418
     50 C          12.0632   -3.1282    0.0000 C.ar    1  UNL1       -0.0000
     51 C          12.9292   -1.6282    0.0000 C.ar    1  UNL1       -0.0000
     52 C          13.7953   -2.1282    0.0000 C.ar    1  UNL1        0.1628
     53 C          12.9292   -3.6282    0.0000 C.ar    1  UNL1        0.1628
     54 C          13.7953   -3.1282    0.0000 C.ar    1  UNL1        0.2006
     55 C           3.4030   -3.1282    0.0000 C.2     1  UNL1        0.3155
     56 C           4.1617    5.3282    0.0000 C.2     1  UNL1        0.3155
     57 H           7.7331   -5.2482    0.0000 H       1  UNL1        0.0647
     58 H           9.1360   -5.4382    0.0000 H       1  UNL1        0.0648
     59 H           4.5464    0.5224    0.0000 H       1  UNL1        0.0647
     60 H           5.0984   -0.7813    0.0000 H       1  UNL1        0.0648
     61 H           7.7331   -3.0082    0.0000 H       1  UNL1        0.0658
     62 H          10.0021   -4.3182    0.0000 H       1  UNL1        0.0683
     63 H           6.4732    1.6647    0.0000 H       1  UNL1        0.0658
     64 H           6.5035   -0.9551    0.0000 H       1  UNL1        0.0683
     65 H           9.4651   -3.0082    0.0000 H       1  UNL1        0.1084
     66 H           7.3565    0.1748    0.0000 H       1  UNL1        0.1084
     67 H           7.2656   -2.6532    0.0000 H       1  UNL1        0.0724
     68 H           6.4685   -2.6532    0.0000 H       1  UNL1        0.0724
     69 H           6.5401    2.2479    0.0000 H       1  UNL1        0.0724
     70 H           6.1336    2.9335    0.0000 H       1  UNL1        0.0724
     71 H           6.8671   -5.7482    0.0000 H       1  UNL1        0.2100
     72 H           8.0622   -6.4382    0.0000 H       1  UNL1        0.2100
     73 H           3.6746    1.0123    0.0000 H       1  UNL1        0.2100
     74 H           3.6906   -0.3676    0.0000 H       1  UNL1        0.2100
     75 H          10.3312   -5.7482    0.0000 H       1  UNL1        0.2102
     76 H           6.5151   -1.9550    0.0000 H       1  UNL1        0.2102
     77 H           8.9282   -1.9382    0.0000 H       1  UNL1        0.0667
     78 H           8.0090    1.2282    0.0000 H       1  UNL1        0.0691
     79 H          10.8877    1.2171    0.0000 H       1  UNL1        0.0749
     80 H           3.8705   -4.1031    0.0000 H       1  UNL1        0.0493
     81 H           4.6675   -4.1031    0.0000 H       1  UNL1        0.0493
     82 H           3.5615    4.4289    0.0000 H       1  UNL1        0.0493
     83 H           3.9680    3.7433    0.0000 H       1  UNL1        0.0493
     84 H          11.5263   -3.4382    0.0000 H       1  UNL1        0.0664
     85 H          12.9292   -1.0082    0.0000 H       1  UNL1        0.0664
     86 H           9.9912    2.7490    0.0000 H       1  UNL1        0.2921
     87 H          14.6613   -1.0082    0.0000 H       1  UNL1        0.2923
     88 H          13.4662   -4.9382    0.0000 H       1  UNL1        0.2923
     89 H          15.1982   -3.3182    0.0000 H       1  UNL1        0.2924
     90 H           2.0000   -3.3182    0.0000 H       1  UNL1        0.2951
     91 H           3.2828    6.4382    0.0000 H       1  UNL1        0.2951
@<TRIPOS>UNITY_ATOM_ATTR
13 1
charge 1
@<TRIPOS>BOND
     1     1    28    1
     2     1    32    1
     3     2    30    1
     4     2    33    1
     5    32     3    1
     6     3    37    1
     7    33     4    1
     8     4    36    1
     9    24     5    1
    10     5    71    1
    11    25     6    1
    12     6    72    1
    13    26     7    1
    14     7    73    1
    15    27     8    1
    16     8    74    1
    17    29     9    1
    18     9    75    1
    19    31    10    1
    20    10    76    1
    21    11    34    1
    22    11    46    1
    23    12    35    1
    24    12    47    1
    25    13    40   ar
    26    13    41   ar
    27    14    44    1
    28    14    86    1
    29    15    46    2
    30    16    47    2
    31    17    52    1
    32    17    87    1
    33    18    53    1
    34    18    88    1
    35    19    54    1
    36    19    89    1
    37    20    55    1
    38    20    90    1
    39    21    56    1
    40    21    91    1
    41    22    55    2
    42    23    56    2
    43    24    25    1
    44    24    28    1
    45    24    57    1
    46    25    29    1
    47    25    58    1
    48    26    27    1
    49    26    30    1
    50    26    59    1
    51    27    31    1
    52    27    60    1
    53    28    34    1
    54    28    61    1
    55    29    32    1
    56    29    62    1
    57    30    35    1
    58    30    63    1
    59    31    33    1
    60    31    64    1
    61    32    65    1
    62    33    66    1
    63    34    67    1
    64    34    68    1
    65    35    69    1
    66    35    70    1
    67    36    38   ar
    68    36    42   ar
    69    37    39   ar
    70    37    40   ar
    71    38    39   ar
    72    38    41   ar
    73    39    77    1
    74    40    45    1
    75    41    43   ar
    76    42    44   ar
    77    42    78    1
    78    43    44   ar
    79    43    79    1
    80    45    50   ar
    81    45    51   ar
    82    46    48    1
    83    47    49    1
    84    48    55    1
    85    48    80    1
    86    48    81    1
    87    49    56    1
    88    49    82    1
    89    49    83    1
    90    50    53   ar
    91    50    84    1
    92    51    52   ar
    93    51    85    1
    94    52    54   ar
    95    53    54   ar
