@<TRIPOS>MOLECULE
IMPHY000038
 32 31 0 0 0
SMALL
GASTEIGER

@<TRIPOS>ATOM
      1 O           9.7942   -0.2500    0.0000 O.3     1  UNL1       -0.4806
      2 O           8.9282    1.2500    0.0000 O.2     1  UNL1       -0.2510
      3 C           4.5981   -0.2500    0.0000 C.3     1  UNL1       -0.0528
      4 C           3.7320    0.2500    0.0000 C.3     1  UNL1       -0.0507
      5 C           5.4641    0.2500    0.0000 C.3     1  UNL1       -0.0530
      6 C           2.8660   -0.2500    0.0000 C.3     1  UNL1       -0.0467
      7 C           6.3301   -0.2500    0.0000 C.3     1  UNL1       -0.0526
      8 C           7.1962    0.2500    0.0000 C.3     1  UNL1       -0.0430
      9 C           2.0000    0.2500    0.0000 C.3     1  UNL1       -0.0627
     10 C           2.8660   -1.2500    0.0000 C.3     1  UNL1       -0.0627
     11 C           8.0622   -0.2500    0.0000 C.3     1  UNL1        0.0448
     12 C           8.9282    0.2500    0.0000 C.2     1  UNL1        0.3047
     13 H           4.1996   -0.7249    0.0000 H       1  UNL1        0.0265
     14 H           4.9966   -0.7249    0.0000 H       1  UNL1        0.0265
     15 H           4.1306    0.7249    0.0000 H       1  UNL1        0.0268
     16 H           3.3335    0.7249    0.0000 H       1  UNL1        0.0268
     17 H           5.8626    0.7249    0.0000 H       1  UNL1        0.0265
     18 H           5.0656    0.7249    0.0000 H       1  UNL1        0.0265
     19 H           2.8660    0.3700    0.0000 H       1  UNL1        0.0295
     20 H           5.9316   -0.7249    0.0000 H       1  UNL1        0.0265
     21 H           6.7287   -0.7249    0.0000 H       1  UNL1        0.0265
     22 H           7.5947    0.7249    0.0000 H       1  UNL1        0.0270
     23 H           6.7976    0.7249    0.0000 H       1  UNL1        0.0270
     24 H           2.3100    0.7869    0.0000 H       1  UNL1        0.0232
     25 H           1.4631    0.5600    0.0000 H       1  UNL1        0.0232
     26 H           1.6900   -0.2869    0.0000 H       1  UNL1        0.0232
     27 H           2.2460   -1.2500    0.0000 H       1  UNL1        0.0232
     28 H           2.8660   -1.8700    0.0000 H       1  UNL1        0.0232
     29 H           3.4860   -1.2500    0.0000 H       1  UNL1        0.0232
     30 H           7.6636   -0.7249    0.0000 H       1  UNL1        0.0377
     31 H           8.4607   -0.7249    0.0000 H       1  UNL1        0.0377
     32 H          10.3312    0.0600    0.0000 H       1  UNL1        0.2951
@<TRIPOS>BOND
     1     1    12    1
     2     1    32    1
     3     2    12    2
     4     3     4    1
     5     3     5    1
     6     3    13    1
     7     3    14    1
     8     4     6    1
     9     4    15    1
    10     4    16    1
    11     5     7    1
    12     5    17    1
    13     5    18    1
    14     6     9    1
    15     6    10    1
    16     6    19    1
    17     7     8    1
    18     7    20    1
    19     7    21    1
    20     8    11    1
    21     8    22    1
    22     8    23    1
    23     9    24    1
    24     9    25    1
    25     9    26    1
    26    10    27    1
    27    10    28    1
    28    10    29    1
    29    11    12    1
    30    11    30    1
    31    11    31    1
