@<TRIPOS>MOLECULE
IMPHY010681
 38 41 0 0 0
SMALL
GASTEIGER

@<TRIPOS>ATOM
      1 O           3.4994   -0.2702    0.0000 O.3     1  UNL1       -0.3570
      2 O           7.7379    0.3393    0.0000 O.2     1  UNL1       -0.2727
      3 N           6.6131   -1.1267    0.0000 N.am    1  UNL1       -0.2959
      4 C           5.2141   -0.6178    0.0000 C.3     1  UNL1        0.0657
      5 C           4.7363    1.3307    0.0000 C.3     1  UNL1        0.0403
      6 C           5.4730    0.3481    0.0000 C.3     1  UNL1        0.1438
      7 C           3.8414   -1.2099    0.0000 C.3     1  UNL1        0.1037
      8 C           6.8719   -0.1607    0.0000 C.2     1  UNL1        0.2453
      9 C           4.2363    2.1967    0.0000 C.ar    1  UNL1       -0.0395
     10 C           3.4188   -2.1162    0.0000 C.ar    1  UNL1       -0.0171
     11 C           7.1131   -1.9927    0.0000 C.3     1  UNL1        0.0037
     12 C           4.7363    3.0628    0.0000 C.ar    1  UNL1       -0.0582
     13 C           3.2363    2.1967    0.0000 C.ar    1  UNL1       -0.0582
     14 C           2.4226   -2.2033    0.0000 C.ar    1  UNL1       -0.0561
     15 C           3.9924   -2.9353    0.0000 C.ar    1  UNL1       -0.0561
     16 C           4.2363    3.9288    0.0000 C.ar    1  UNL1       -0.0615
     17 C           2.7363    3.0628    0.0000 C.ar    1  UNL1       -0.0615
     18 C           2.0000   -3.1096    0.0000 C.ar    1  UNL1       -0.0614
     19 C           3.5698   -3.8416    0.0000 C.ar    1  UNL1       -0.0614
     20 C           3.2363    3.9288    0.0000 C.ar    1  UNL1       -0.0617
     21 C           2.5736   -3.9288    0.0000 C.ar    1  UNL1       -0.0617
     22 H           4.9941   -1.4389    0.0000 H       1  UNL1        0.0536
     23 H           5.2538    1.6723    0.0000 H       1  UNL1        0.0398
     24 H           5.6930    1.1691    0.0000 H       1  UNL1        0.0700
     25 H           4.2734   -1.6546    0.0000 H       1  UNL1        0.0665
     26 H           6.5761   -2.3027    0.0000 H       1  UNL1        0.0429
     27 H           7.4231   -2.5296    0.0000 H       1  UNL1        0.0429
     28 H           7.6500   -1.6827    0.0000 H       1  UNL1        0.0429
     29 H           5.3563    3.0628    0.0000 H       1  UNL1        0.0620
     30 H           2.9263    1.6598    0.0000 H       1  UNL1        0.0620
     31 H           2.0670   -1.6954    0.0000 H       1  UNL1        0.0621
     32 H           4.6100   -2.8813    0.0000 H       1  UNL1        0.0621
     33 H           4.5463    4.4657    0.0000 H       1  UNL1        0.0618
     34 H           2.1163    3.0628    0.0000 H       1  UNL1        0.0618
     35 H           1.3824   -3.1637    0.0000 H       1  UNL1        0.0618
     36 H           3.9254   -4.3495    0.0000 H       1  UNL1        0.0618
     37 H           2.9263    4.4657    0.0000 H       1  UNL1        0.0618
     38 H           2.3116   -4.4907    0.0000 H       1  UNL1        0.0618
@<TRIPOS>BOND
     1     1     6    1
     2     1     7    1
     3     2     8    2
     4     3     4    1
     5     3     8   am
     6     3    11    1
     7     4     5    1
     8     4     7    1
     9     4    22    1
    10     5     6    1
    11     5     9    1
    12     5    23    1
    13     6     8    1
    14     6    24    1
    15     7    10    1
    16     7    25    1
    17     9    12   ar
    18     9    13   ar
    19    10    14   ar
    20    10    15   ar
    21    11    26    1
    22    11    27    1
    23    11    28    1
    24    12    16   ar
    25    12    29    1
    26    13    17   ar
    27    13    30    1
    28    14    18   ar
    29    14    31    1
    30    15    19   ar
    31    15    32    1
    32    16    20   ar
    33    16    33    1
    34    17    20   ar
    35    17    34    1
    36    18    21   ar
    37    18    35    1
    38    19    21   ar
    39    19    36    1
    40    20    37    1
    41    21    38    1
