@<TRIPOS>MOLECULE
IMPHY017180
 33 32 0 0 0
SMALL
GASTEIGER

@<TRIPOS>ATOM
      1 O          12.3923   -0.2500    0.0000 O.3     1  UNL1       -0.3910
      2 C           8.0622    0.2500    0.0000 C.3     1  UNL1       -0.0313
      3 C           5.4641   -0.2500    0.0000 C.3     1  UNL1       -0.0313
      4 C           8.9282   -0.2500    0.0000 C.3     1  UNL1       -0.0313
      5 C           4.5981    0.2500    0.0000 C.3     1  UNL1       -0.0313
      6 C           7.1962   -0.2500    0.0000 C.2     1  UNL1       -0.0876
      7 C           6.3301    0.2500    0.0000 C.2     1  UNL1       -0.0876
      8 C           9.7942    0.2500    0.0000 C.2     1  UNL1       -0.0855
      9 C           3.7320   -0.2500    0.0000 C.2     1  UNL1       -0.0879
     10 C          10.6603   -0.2500    0.0000 C.2     1  UNL1       -0.0629
     11 C           2.8660    0.2500    0.0000 C.2     1  UNL1       -0.0910
     12 C          11.5263    0.2500    0.0000 C.3     1  UNL1        0.0624
     13 C           2.0000   -0.2500    0.0000 C.3     1  UNL1       -0.0468
     14 H           8.4607    0.7249    0.0000 H       1  UNL1        0.0310
     15 H           7.6636    0.7249    0.0000 H       1  UNL1        0.0310
     16 H           5.0656   -0.7249    0.0000 H       1  UNL1        0.0310
     17 H           5.8626   -0.7249    0.0000 H       1  UNL1        0.0310
     18 H           8.5297   -0.7249    0.0000 H       1  UNL1        0.0310
     19 H           9.3267   -0.7249    0.0000 H       1  UNL1        0.0310
     20 H           4.9966    0.7249    0.0000 H       1  UNL1        0.0310
     21 H           4.1996    0.7249    0.0000 H       1  UNL1        0.0310
     22 H           7.1962   -0.8700    0.0000 H       1  UNL1        0.0569
     23 H           6.3301    0.8700    0.0000 H       1  UNL1        0.0569
     24 H           9.7942    0.8700    0.0000 H       1  UNL1        0.0570
     25 H           3.7320   -0.8700    0.0000 H       1  UNL1        0.0569
     26 H          10.6603   -0.8700    0.0000 H       1  UNL1        0.0591
     27 H           2.8660    0.8700    0.0000 H       1  UNL1        0.0566
     28 H          11.9248    0.7249    0.0000 H       1  UNL1        0.0601
     29 H          11.1278    0.7249    0.0000 H       1  UNL1        0.0601
     30 H           1.6900    0.2869    0.0000 H       1  UNL1        0.0272
     31 H           1.4631   -0.5600    0.0000 H       1  UNL1        0.0272
     32 H           2.3100   -0.7869    0.0000 H       1  UNL1        0.0272
     33 H          12.9292    0.0600    0.0000 H       1  UNL1        0.2098
@<TRIPOS>BOND
     1     1    12    1
     2     1    33    1
     3     2     4    1
     4     2     6    1
     5     2    14    1
     6     2    15    1
     7     3     5    1
     8     3     7    1
     9     3    16    1
    10     3    17    1
    11     4     8    1
    12     4    18    1
    13     4    19    1
    14     5     9    1
    15     5    20    1
    16     5    21    1
    17     6     7    2
    18     6    22    1
    19     7    23    1
    20     8    10    2
    21     8    24    1
    22     9    11    2
    23     9    25    1
    24    10    12    1
    25    10    26    1
    26    11    13    1
    27    11    27    1
    28    12    28    1
    29    12    29    1
    30    13    30    1
    31    13    31    1
    32    13    32    1
