@<TRIPOS>MOLECULE
IMPHY002799
 54 56 0 0 0
SMALL
GASTEIGER

@<TRIPOS>ATOM
      1 O           5.1350   -2.7500    0.0000 O.3     1  UNL1       -0.3313
      2 O           6.8671   -2.7500    0.0000 O.3     1  UNL1       -0.4535
      3 O           5.1350   -5.7500    0.0000 O.3     1  UNL1       -0.3864
      4 O           3.4030   -4.7500    0.0000 O.3     1  UNL1       -0.3865
      5 O           6.8671   -4.7500    0.0000 O.3     1  UNL1       -0.3829
      6 O           2.5369   -3.2500    0.0000 O.3     1  UNL1       -0.3924
      7 O           8.5991   -1.7500    0.0000 O.3     1  UNL1       -0.5027
      8 O           5.1350   -1.7500    0.0000 O.3     1  UNL1       -0.5032
      9 O           9.4651   -0.2500    0.0000 O.2     1  UNL1       -0.2872
     10 O          11.1972    4.7500    0.0000 O.3     1  UNL1       -0.5033
     11 O           9.4651    5.7500    0.0000 O.3     1  UNL1       -0.5033
     12 C           5.1350   -4.7500    0.0000 C.3     1  UNL1        0.1152
     13 C           4.2690   -4.2500    0.0000 C.3     1  UNL1        0.1120
     14 C           4.2690   -3.2500    0.0000 C.3     1  UNL1        0.1140
     15 C           6.0010   -4.2500    0.0000 C.3     1  UNL1        0.1454
     16 C           6.0010   -3.2500    0.0000 C.3     1  UNL1        0.2311
     17 C           3.4030   -2.7500    0.0000 C.3     1  UNL1        0.0731
     18 C           6.8671   -1.7500    0.0000 C.ar    1  UNL1        0.2069
     19 C           7.7331   -1.2500    0.0000 C.ar    1  UNL1        0.1733
     20 C           6.0010   -1.2500    0.0000 C.ar    1  UNL1        0.1623
     21 C           7.7331   -0.2500    0.0000 C.ar    1  UNL1        0.0669
     22 C           6.0010   -0.2500    0.0000 C.ar    1  UNL1       -0.0156
     23 C           6.8671    0.2500    0.0000 C.ar    1  UNL1       -0.0437
     24 C           8.5991    0.2500    0.0000 C.2     1  UNL1        0.1897
     25 C           8.5991    1.2500    0.0000 C.2     1  UNL1       -0.0137
     26 C           9.4651    1.7500    0.0000 C.2     1  UNL1       -0.0508
     27 C           9.4651    2.7500    0.0000 C.ar    1  UNL1       -0.0212
     28 C          10.3312    3.2500    0.0000 C.ar    1  UNL1       -0.0094
     29 C           8.5991    3.2500    0.0000 C.ar    1  UNL1       -0.0509
     30 C          10.3312    4.2500    0.0000 C.ar    1  UNL1        0.1588
     31 C           8.5991    4.2500    0.0000 C.ar    1  UNL1       -0.0160
     32 C           9.4651    4.7500    0.0000 C.ar    1  UNL1        0.1582
     33 H           4.5981   -5.0600    0.0000 H       1  UNL1        0.0648
     34 H           4.2690   -4.8700    0.0000 H       1  UNL1        0.0647
     35 H           6.0010   -4.8700    0.0000 H       1  UNL1        0.0683
     36 H           4.2690   -2.6300    0.0000 H       1  UNL1        0.0647
     37 H           6.0010   -2.6300    0.0000 H       1  UNL1        0.1084
     38 H           3.8015   -2.2750    0.0000 H       1  UNL1        0.0584
     39 H           3.0044   -2.2750    0.0000 H       1  UNL1        0.0584
     40 H           4.5981   -6.0600    0.0000 H       1  UNL1        0.2100
     41 H           3.4030   -5.3700    0.0000 H       1  UNL1        0.2100
     42 H           6.8671   -5.3700    0.0000 H       1  UNL1        0.2102
     43 H           2.0000   -2.9400    0.0000 H       1  UNL1        0.2095
     44 H           5.4641    0.0600    0.0000 H       1  UNL1        0.0655
     45 H           6.8671    0.8700    0.0000 H       1  UNL1        0.0627
     46 H           8.5991   -2.3700    0.0000 H       1  UNL1        0.2923
     47 H           4.5981   -1.4400    0.0000 H       1  UNL1        0.2923
     48 H           8.0622    1.5600    0.0000 H       1  UNL1        0.0656
     49 H          10.0021    1.4400    0.0000 H       1  UNL1        0.0625
     50 H          10.8681    2.9400    0.0000 H       1  UNL1        0.0661
     51 H           8.0622    2.9400    0.0000 H       1  UNL1        0.0625
     52 H           8.0622    4.5600    0.0000 H       1  UNL1        0.0655
     53 H          11.7341    4.4400    0.0000 H       1  UNL1        0.2923
     54 H           8.9282    6.0600    0.0000 H       1  UNL1        0.2923
@<TRIPOS>BOND
     1     1    14    1
     2     1    16    1
     3     2    16    1
     4     2    18    1
     5     3    12    1
     6     3    40    1
     7     4    13    1
     8     4    41    1
     9     5    15    1
    10     5    42    1
    11     6    17    1
    12     6    43    1
    13     7    19    1
    14     7    46    1
    15     8    20    1
    16     8    47    1
    17     9    24    2
    18    10    30    1
    19    10    53    1
    20    11    32    1
    21    11    54    1
    22    12    13    1
    23    12    15    1
    24    12    33    1
    25    13    14    1
    26    13    34    1
    27    14    17    1
    28    14    36    1
    29    15    16    1
    30    15    35    1
    31    16    37    1
    32    17    38    1
    33    17    39    1
    34    18    19   ar
    35    18    20   ar
    36    19    21   ar
    37    20    22   ar
    38    21    23   ar
    39    21    24    1
    40    22    23   ar
    41    22    44    1
    42    23    45    1
    43    24    25    1
    44    25    26    2
    45    25    48    1
    46    26    27    1
    47    26    49    1
    48    27    28   ar
    49    27    29   ar
    50    28    30   ar
    51    28    50    1
    52    29    31   ar
    53    29    51    1
    54    30    32   ar
    55    31    32   ar
    56    31    52    1
