@<TRIPOS>MOLECULE
IMPHY017367
 40 41 0 0 0
SMALL
GASTEIGER

@<TRIPOS>ATOM
      1 O           3.7320   -1.2500    0.0000 O.3     1  UNL1       -0.3837
      2 C           3.7320    0.7500    0.0000 C.3     1  UNL1       -0.0048
      3 C           3.7320   -0.2500    0.0000 C.3     1  UNL1        0.0940
      4 C           2.8660    1.2500    0.0000 C.3     1  UNL1       -0.0347
      5 C           4.6260    1.2847    0.0000 C.3     1  UNL1       -0.0433
      6 C           2.8660   -0.7500    0.0000 C.2     1  UNL1       -0.0392
      7 C           4.6260   -0.7847    0.0000 C.3     1  UNL1        0.0011
      8 C           2.0000    0.7500    0.0000 C.3     1  UNL1       -0.0315
      9 C           5.5321    0.7708    0.0000 C.3     1  UNL1       -0.0315
     10 C           5.5321   -0.2708    0.0000 C.2     1  UNL1       -0.0736
     11 C           2.0000   -0.2500    0.0000 C.2     1  UNL1       -0.0815
     12 C           2.8660   -1.7500    0.0000 C.3     1  UNL1       -0.0229
     13 C           2.8660    2.2500    0.0000 C.3     1  UNL1       -0.0618
     14 C           2.0000   -2.2500    0.0000 C.3     1  UNL1       -0.0589
     15 C           3.7320   -2.2500    0.0000 C.3     1  UNL1       -0.0589
     16 C           6.3961   -0.7742    0.0000 C.2     1  UNL1       -0.0993
     17 H           4.2714    0.4441    0.0000 H       1  UNL1        0.0335
     18 H           3.4030    1.5600    0.0000 H       1  UNL1        0.0305
     19 H           5.0196    1.7637    0.0000 H       1  UNL1        0.0272
     20 H           4.2214    1.7544    0.0000 H       1  UNL1        0.0272
     21 H           4.2214   -1.2544    0.0000 H       1  UNL1        0.0341
     22 H           5.0196   -1.2637    0.0000 H       1  UNL1        0.0341
     23 H           1.7880    1.3326    0.0000 H       1  UNL1        0.0310
     24 H           1.3894    0.6423    0.0000 H       1  UNL1        0.0310
     25 H           6.1429    0.6647    0.0000 H       1  UNL1        0.0310
     26 H           5.7411    1.3545    0.0000 H       1  UNL1        0.0310
     27 H           1.4631   -0.5600    0.0000 H       1  UNL1        0.0573
     28 H           2.8660   -2.3700    0.0000 H       1  UNL1        0.0341
     29 H           3.4860    2.2500    0.0000 H       1  UNL1        0.0233
     30 H           2.8660    2.8700    0.0000 H       1  UNL1        0.0233
     31 H           2.2460    2.2500    0.0000 H       1  UNL1        0.0233
     32 H           4.2690   -1.5600    0.0000 H       1  UNL1        0.2106
     33 H           1.6900   -1.7131    0.0000 H       1  UNL1        0.0235
     34 H           1.4631   -2.5600    0.0000 H       1  UNL1        0.0235
     35 H           2.3100   -2.7869    0.0000 H       1  UNL1        0.0235
     36 H           3.4220   -2.7869    0.0000 H       1  UNL1        0.0235
     37 H           4.2690   -2.5600    0.0000 H       1  UNL1        0.0235
     38 H           4.0420   -1.7131    0.0000 H       1  UNL1        0.0235
     39 H           6.3938   -1.3942    0.0000 H       1  UNL1        0.0534
     40 H           6.9343   -0.4662    0.0000 H       1  UNL1        0.0534
@<TRIPOS>BOND
     1     1     3    1
     2     1    32    1
     3     2     3    1
     4     2     4    1
     5     2     5    1
     6     2    17    1
     7     3     6    1
     8     3     7    1
     9     4     8    1
    10     4    13    1
    11     4    18    1
    12     5     9    1
    13     5    19    1
    14     5    20    1
    15     6    11    2
    16     6    12    1
    17     7    10    1
    18     7    21    1
    19     7    22    1
    20     8    11    1
    21     8    23    1
    22     8    24    1
    23     9    10    1
    24     9    25    1
    25     9    26    1
    26    10    16    2
    27    11    27    1
    28    12    14    1
    29    12    15    1
    30    12    28    1
    31    13    29    1
    32    13    30    1
    33    13    31    1
    34    14    33    1
    35    14    34    1
    36    14    35    1
    37    15    36    1
    38    15    37    1
    39    15    38    1
    40    16    39    1
    41    16    40    1
