@<TRIPOS>MOLECULE
IMPHY006313
 69 73 0 0 0
SMALL
GASTEIGER

@<TRIPOS>ATOM
      1 O          12.9636   -1.7755    0.0000 O.3     1  UNL1       -0.3915
      2 O           5.2996    1.3095    0.0000 O.3     1  UNL1       -0.3902
      3 N           3.0407   -0.0681    0.0000 N.3     1  UNL1       -0.3101
      4 C           8.9858   -0.9176    0.0000 C.3     1  UNL1       -0.0208
      5 C           9.9639   -1.1255    0.0000 C.3     1  UNL1       -0.0072
      6 C           8.6768    0.0335    0.0000 C.3     1  UNL1       -0.0083
      7 C           8.1800   -1.4998    0.0000 C.3     1  UNL1       -0.0230
      8 C          10.6330   -0.3823    0.0000 C.2     1  UNL1       -0.0648
      9 C          10.2705   -2.1210    0.0000 C.3     1  UNL1       -0.0413
     10 C           9.3459    0.7766    0.0000 C.3     1  UNL1       -0.0274
     11 C           7.6827    0.0309    0.0000 C.ar    1  UNL1       -0.0402
     12 C           7.3763   -0.9148    0.0000 C.ar    1  UNL1       -0.0404
     13 C           9.2948   -1.8686    0.0000 C.3     1  UNL1       -0.0556
     14 C          11.6551   -0.5832    0.0000 C.3     1  UNL1       -0.0051
     15 C          11.2877   -2.3454    0.0000 C.3     1  UNL1       -0.0258
     16 C          10.3240    0.5687    0.0000 C.2     1  UNL1       -0.0836
     17 C          11.9846   -1.5713    0.0000 C.3     1  UNL1        0.0590
     18 C           6.3671   -1.1466    0.0000 C.ar    1  UNL1       -0.0435
     19 C           7.0011    0.8104    0.0000 C.ar    1  UNL1       -0.0577
     20 C           5.6677   -0.3830    0.0000 C.ar    1  UNL1       -0.0398
     21 C           4.6905   -0.5955    0.0000 C.3     1  UNL1       -0.0006
     22 C           4.0179    0.1444    0.0000 C.3     1  UNL1        0.0402
     23 C           5.9868    0.6020    0.0000 C.ar    1  UNL1       -0.0577
     24 C           6.0699   -2.1014    0.0000 C.3     1  UNL1       -0.0392
     25 C           4.3224    1.0969    0.0000 C.3     1  UNL1        0.0714
     26 C           3.6498    1.8369    0.0000 C.3     1  UNL1       -0.0216
     27 C           2.6726    1.6244    0.0000 C.3     1  UNL1       -0.0289
     28 C           4.3860   -1.5480    0.0000 C.3     1  UNL1       -0.0569
     29 C           2.3681    0.6719    0.0000 C.3     1  UNL1       -0.0011
     30 C           2.0000    2.3644    0.0000 C.3     1  UNL1       -0.0612
     31 H           9.5545   -0.2859    0.0000 H       1  UNL1        0.0318
     32 H           8.3300    0.8095    0.0000 H       1  UNL1        0.0355
     33 H           7.7645   -1.9600    0.0000 H       1  UNL1        0.0316
     34 H           8.5940   -1.9614    0.0000 H       1  UNL1        0.0316
     35 H           9.6555   -2.1994    0.0000 H       1  UNL1        0.0274
     36 H          10.2425   -2.7404    0.0000 H       1  UNL1        0.0274
     37 H           9.5781    1.3515    0.0000 H       1  UNL1        0.0313
     38 H           8.8201    1.1052    0.0000 H       1  UNL1        0.0313
     39 H           8.8340   -1.4538    0.0000 H       1  UNL1        0.0238
     40 H           8.8799   -2.3294    0.0000 H       1  UNL1        0.0238
     41 H           9.7555   -2.2835    0.0000 H       1  UNL1        0.0238
     42 H          12.2682   -0.4906    0.0000 H       1  UNL1        0.0335
     43 H          11.6688    0.0367    0.0000 H       1  UNL1        0.0335
     44 H          11.0524   -2.9191    0.0000 H       1  UNL1        0.0290
     45 H          11.8126   -2.6753    0.0000 H       1  UNL1        0.0290
     46 H          10.7389    1.0295    0.0000 H       1  UNL1        0.0572
     47 H          12.1774   -2.1606    0.0000 H       1  UNL1        0.0596
     48 H           7.1990    1.3980    0.0000 H       1  UNL1        0.0621
     49 H           4.0847   -0.7273    0.0000 H       1  UNL1        0.0362
     50 H           4.8485    0.3251    0.0000 H       1  UNL1        0.0492
     51 H           5.5733    1.0640    0.0000 H       1  UNL1        0.0621
     52 H           4.5112    1.6875    0.0000 H       1  UNL1        0.0609
     53 H           5.4780   -1.9171    0.0000 H       1  UNL1        0.0278
     54 H           5.8857   -2.6934    0.0000 H       1  UNL1        0.0278
     55 H           6.6619   -2.2856    0.0000 H       1  UNL1        0.0278
     56 H          13.1574   -2.3644    0.0000 H       1  UNL1        0.2098
     57 H           4.1740    2.1680    0.0000 H       1  UNL1        0.0294
     58 H           3.4148    2.4107    0.0000 H       1  UNL1        0.0294
     59 H           2.0668    1.4926    0.0000 H       1  UNL1        0.0311
     60 H           2.8519   -0.6586    0.0000 H       1  UNL1        0.1223
     61 H           3.7954   -1.3592    0.0000 H       1  UNL1        0.0236
     62 H           4.1972   -2.1386    0.0000 H       1  UNL1        0.0236
     63 H           4.9765   -1.7368    0.0000 H       1  UNL1        0.0236
     64 H           1.8193    0.9604    0.0000 H       1  UNL1        0.0427
     65 H           1.9887    0.1815    0.0000 H       1  UNL1        0.0427
     66 H           2.4588    2.7814    0.0000 H       1  UNL1        0.0233
     67 H           1.5830    2.8232    0.0000 H       1  UNL1        0.0233
     68 H           1.5412    1.9473    0.0000 H       1  UNL1        0.0233
     69 H           5.4884    1.9000    0.0000 H       1  UNL1        0.2098
@<TRIPOS>BOND
     1    17     1    1
     2     1    56    1
     3    25     2    1
     4     2    69    1
     5     3    22    1
     6     3    29    1
     7     3    60    1
     8     4     5    1
     9     4     6    1
    10     4     7    1
    11     4    31    1
    12     5     8    1
    13     5     9    1
    14     5    13    1
    15     6    10    1
    16     6    11    1
    17     6    32    1
    18     7    12    1
    19     7    33    1
    20     7    34    1
    21     8    14    1
    22     8    16    2
    23     9    15    1
    24     9    35    1
    25     9    36    1
    26    10    16    1
    27    10    37    1
    28    10    38    1
    29    11    12   ar
    30    11    19   ar
    31    12    18   ar
    32    13    39    1
    33    13    40    1
    34    13    41    1
    35    14    17    1
    36    14    42    1
    37    14    43    1
    38    15    17    1
    39    15    44    1
    40    15    45    1
    41    16    46    1
    42    17    47    1
    43    18    20   ar
    44    18    24    1
    45    19    23   ar
    46    19    48    1
    47    20    21    1
    48    20    23   ar
    49    21    22    1
    50    21    28    1
    51    21    49    1
    52    22    25    1
    53    22    50    1
    54    23    51    1
    55    24    53    1
    56    24    54    1
    57    24    55    1
    58    25    26    1
    59    25    52    1
    60    26    27    1
    61    26    57    1
    62    26    58    1
    63    27    29    1
    64    27    30    1
    65    27    59    1
    66    28    61    1
    67    28    62    1
    68    28    63    1
    69    29    64    1
    70    29    65    1
    71    30    66    1
    72    30    67    1
    73    30    68    1
