@<TRIPOS>MOLECULE
IMPHY017923
 38 40 0 0 0
SMALL
GASTEIGER

@<TRIPOS>ATOM
      1 N           8.0964   -1.9777    0.0000 N.ar    1  UNL1       -0.2414
      2 C           6.9221   -1.3597    0.0000 C.2     1  UNL1        0.3246
      3 C           3.4611   -5.9950    0.0000 C.ar    1  UNL1        0.1595
      4 C           3.4611   -7.3547    0.0000 C.ar    1  UNL1        0.0932
      5 C           2.3486   -5.3770    0.0000 C.ar    1  UNL1        0.0932
      6 N           9.3325   -3.7701    0.0000 N.ar    1  UNL1       -0.2219
      7 C           8.0964   -3.3374    0.0000 C.ar    1  UNL1        0.1862
      8 C           1.1743   -6.0568    0.0000 C.ar    1  UNL1        0.0259
      9 C           2.3486   -8.0346    0.0000 C.ar    1  UNL1        0.0259
     10 N           5.8096   -1.9777    0.0000 N.am    1  UNL1       -0.2578
     11 C           9.3325   -1.6069    0.0000 C.ar    1  UNL1        0.1064
     12 C           1.1743   -7.3547    0.0000 C.ar    1  UNL1        0.0596
     13 O           6.9221    0.0000    0.0000 O.2     1  UNL1       -0.2489
     14 C          10.1359   -2.6576    0.0000 C.ar    1  UNL1        0.1198
     15 CL          2.3486   -4.0173    0.0000 Cl      1  UNL1       -0.0790
     16 CL          4.6353   -8.0346    0.0000 Cl      1  UNL1       -0.0790
     17 O           4.6353   -5.3770    0.0000 O.3     1  UNL1       -0.4719
     18 CL          0.0000   -7.9728    0.0000 Cl      1  UNL1       -0.0822
     19 C           4.6353   -4.0173    0.0000 C.3     1  UNL1        0.2269
     20 C           5.8096   -3.3374    0.0000 C.3     1  UNL1        0.1424
     21 C           4.6353   -1.3597    0.0000 C.3     1  UNL1        0.0953
     22 C           3.4611   -2.0396    0.0000 C.3     1  UNL1        0.0216
     23 C           2.3486   -1.3597    0.0000 C.3     1  UNL1        0.0018
     24 C          16.2546   -3.0284    0.0000 C.ar    2  UNL2       -0.0265
     25 C          16.2546   -4.3263    0.0000 C.ar    2  UNL2       -0.0268
     26 C          15.0803   -2.3486    0.0000 C.ar    2  UNL2       -0.0049
     27 C          15.0803   -5.0062    0.0000 C.ar    2  UNL2       -0.0088
     28 C          17.3671   -5.0062    0.0000 C.3     2  UNL2        0.0220
     29 C          17.3671   -2.3486    0.0000 C.3     2  UNL2        0.0220
     30 C          18.5414   -3.0284    0.0000 C.3     2  UNL2        0.0047
     31 C          18.5414   -4.3263    0.0000 C.3     2  UNL2        0.0047
     32 C          13.9060   -4.3263    0.0000 C.ar    2  UNL2       -0.0222
     33 C          13.9060   -3.0284    0.0000 C.ar    2  UNL2       -0.0046
     34 C          17.3671   -1.0507    0.0000 C.3     2  UNL2        0.0047
     35 C          12.7935   -5.0062    0.0000 C.3     2  UNL2        0.0310
     36 C          17.3671   -6.3659    0.0000 C.3     2  UNL2        0.0040
     37 C          18.5414   -6.9839    0.0000 C.3     2  UNL2        0.0003
     38 C          16.2546   -6.9839    0.0000 C.3     2  UNL2        0.0003
@<TRIPOS>BOND
     1     1     2   am
     2     1     7   ar
     3     1    11   ar
     4     2    10   am
     5     2    13    2
     6     3    17    1
     7     3     4   ar
     8     3     5   ar
     9     4     9   ar
    10     4    16    1
    11     5     8   ar
    12     5    15    1
    13     6     7   ar
    14     6    14   ar
    15     8    12   ar
    16     9    12   ar
    17    10    20    1
    18    10    21    1
    19    11    14   ar
    20    12    18    1
    21    17    19    1
    22    19    20    1
    23    21    22    1
    24    22    23    1
    25    24    25   ar
    26    24    26   ar
    27    24    29    1
    28    25    27   ar
    29    25    28    1
    30    26    33   ar
    31    27    32   ar
    32    28    31    1
    33    28    36    1
    34    29    30    1
    35    29    34    1
    36    30    31    1
    37    32    33   ar
    38    32    35    1
    39    36    37    1
    40    36    38    1
