@<TRIPOS>MOLECULE
IMPHY005749
 56 58 0 0 0
SMALL
GASTEIGER

@<TRIPOS>ATOM
      1 O          11.5542   -0.9226    0.0000 O.2     1  UNL1       -0.4544
      2 O           9.7942    2.1121    0.0000 O.3     1  UNL1       -0.5055
      3 O           8.0622   -0.8879    0.0000 O.3     1  UNL1       -0.5062
      4 O          11.5426    2.1467    0.0000 O.2     1  UNL1       -0.2869
      5 O          15.9166   -2.4221    0.0000 O.3     1  UNL1       -0.5068
      6 C           8.9282    0.6121    0.0000 C.ar    1  UNL1        0.0400
      7 C           8.0622    1.1121    0.0000 C.3     1  UNL1       -0.0023
      8 C          10.6603    0.6121    0.0000 C.ar    1  UNL1        0.1057
      9 C           5.4641    0.6121    0.0000 C.3     1  UNL1       -0.0286
     10 C           6.3301    1.1121    0.0000 C.2     1  UNL1       -0.0759
     11 C           9.7942    1.1121    0.0000 C.ar    1  UNL1        0.1381
     12 C           7.1962    0.6121    0.0000 C.2     1  UNL1       -0.0805
     13 C          10.6603   -0.3879    0.0000 C.ar    1  UNL1        0.1463
     14 C           8.9282   -0.3879    0.0000 C.ar    1  UNL1        0.1273
     15 C           4.5981    1.1121    0.0000 C.3     1  UNL1       -0.0308
     16 C           9.7942   -0.8879    0.0000 C.ar    1  UNL1        0.0234
     17 C          11.5542    1.1467    0.0000 C.ar    1  UNL1        0.1966
     18 C          12.4603   -0.4087    0.0000 C.ar    1  UNL1        0.1392
     19 C           6.3301    2.1121    0.0000 C.3     1  UNL1       -0.0438
     20 C          12.4603    0.6329    0.0000 C.ar    1  UNL1        0.0288
     21 C           3.7320    0.6121    0.0000 C.2     1  UNL1       -0.0850
     22 C          13.3244   -0.9121    0.0000 C.ar    1  UNL1        0.0176
     23 C           2.8660    1.1121    0.0000 C.2     1  UNL1       -0.0796
     24 C          13.3205   -1.9121    0.0000 C.ar    1  UNL1       -0.0476
     25 C          14.1923   -0.4154    0.0000 C.ar    1  UNL1       -0.0476
     26 C           2.0000    0.6121    0.0000 C.3     1  UNL1       -0.0440
     27 C           2.8660    2.1121    0.0000 C.3     1  UNL1       -0.0440
     28 C          14.1846   -2.4154    0.0000 C.ar    1  UNL1       -0.0195
     29 C          15.0564   -0.9188    0.0000 C.ar    1  UNL1       -0.0195
     30 C          15.0525   -1.9187    0.0000 C.ar    1  UNL1        0.1169
     31 H           8.4607    1.5870    0.0000 H       1  UNL1        0.0358
     32 H           7.6636    1.5870    0.0000 H       1  UNL1        0.0358
     33 H           5.0656    0.1371    0.0000 H       1  UNL1        0.0313
     34 H           5.8626    0.1371    0.0000 H       1  UNL1        0.0313
     35 H           7.1962   -0.0079    0.0000 H       1  UNL1        0.0575
     36 H           4.9966    1.5870    0.0000 H       1  UNL1        0.0310
     37 H           4.1996    1.5870    0.0000 H       1  UNL1        0.0310
     38 H           9.7942   -1.5079    0.0000 H       1  UNL1        0.0691
     39 H           6.9501    2.1121    0.0000 H       1  UNL1        0.0274
     40 H           6.3301    2.7321    0.0000 H       1  UNL1        0.0274
     41 H           5.7101    2.1121    0.0000 H       1  UNL1        0.0274
     42 H          12.9960    0.9450    0.0000 H       1  UNL1        0.0693
     43 H           3.7320   -0.0079    0.0000 H       1  UNL1        0.0572
     44 H           9.2573    2.4221    0.0000 H       1  UNL1        0.2922
     45 H           8.0622   -1.5079    0.0000 H       1  UNL1        0.2921
     46 H          12.7824   -2.2200    0.0000 H       1  UNL1        0.0626
     47 H          14.1947    0.2046    0.0000 H       1  UNL1        0.0626
     48 H           1.6900    1.1490    0.0000 H       1  UNL1        0.0274
     49 H           3.4860    2.1121    0.0000 H       1  UNL1        0.0274
     50 H           2.8660    2.7321    0.0000 H       1  UNL1        0.0274
     51 H           2.2460    2.1121    0.0000 H       1  UNL1        0.0274
     52 H           1.4631    0.3021    0.0000 H       1  UNL1        0.0274
     53 H           2.3100    0.0751    0.0000 H       1  UNL1        0.0274
     54 H          14.1822   -3.0354    0.0000 H       1  UNL1        0.0654
     55 H          15.5945   -0.6108    0.0000 H       1  UNL1        0.0654
     56 H          16.4548   -2.1142    0.0000 H       1  UNL1        0.2921
@<TRIPOS>BOND
     1     1    13   ar
     2     1    18   ar
     3     2    11    1
     4     2    44    1
     5     3    14    1
     6     3    45    1
     7     4    17    2
     8     5    30    1
     9     5    56    1
    10     6     7    1
    11     6    11   ar
    12     6    14   ar
    13     7    12    1
    14     7    31    1
    15     7    32    1
    16     8    11   ar
    17     8    13   ar
    18     8    17   ar
    19     9    10    1
    20     9    15    1
    21     9    33    1
    22     9    34    1
    23    10    12    2
    24    10    19    1
    25    12    35    1
    26    13    16   ar
    27    14    16   ar
    28    15    21    1
    29    15    36    1
    30    15    37    1
    31    16    38    1
    32    17    20   ar
    33    18    20   ar
    34    18    22    1
    35    19    39    1
    36    19    40    1
    37    19    41    1
    38    20    42    1
    39    21    23    2
    40    21    43    1
    41    22    24   ar
    42    22    25   ar
    43    23    26    1
    44    23    27    1
    45    24    28   ar
    46    24    46    1
    47    25    29   ar
    48    25    47    1
    49    26    48    1
    50    26    52    1
    51    26    53    1
    52    27    49    1
    53    27    50    1
    54    27    51    1
    55    28    30   ar
    56    28    54    1
    57    29    30   ar
    58    29    55    1
