@<TRIPOS>MOLECULE
IMPHY012582
 28 28 0 0 0
SMALL
GASTEIGER

@<TRIPOS>ATOM
      1 C           2.8660   -0.2500    0.0000 C.3     1  UNL1       -0.0374
      2 C           3.7320    0.2500    0.0000 C.3     1  UNL1       -0.0178
      3 C           4.5981   -0.2500    0.0000 C.3     1  UNL1       -0.0463
      4 C           2.8660   -1.2500    0.0000 C.3     1  UNL1       -0.0499
      5 C           4.5981   -1.2500    0.0000 C.3     1  UNL1       -0.0525
      6 C           3.7320   -1.7500    0.0000 C.3     1  UNL1       -0.0528
      7 C           2.0000    0.2500    0.0000 C.3     1  UNL1       -0.0619
      8 C           3.7320    1.2500    0.0000 C.2     1  UNL1       -0.0764
      9 C           4.5981    1.7500    0.0000 C.3     1  UNL1       -0.0438
     10 C           2.8660    1.7500    0.0000 C.2     1  UNL1       -0.0994
     11 H           2.8660    0.3700    0.0000 H       1  UNL1        0.0304
     12 H           4.2690    0.5600    0.0000 H       1  UNL1        0.0348
     13 H           5.2087   -0.3577    0.0000 H       1  UNL1        0.0271
     14 H           4.8101    0.3326    0.0000 H       1  UNL1        0.0271
     15 H           2.2554   -1.1423    0.0000 H       1  UNL1        0.0268
     16 H           2.6540   -1.8326    0.0000 H       1  UNL1        0.0268
     17 H           4.8101   -1.8326    0.0000 H       1  UNL1        0.0265
     18 H           5.2087   -1.1423    0.0000 H       1  UNL1        0.0265
     19 H           3.3335   -2.2250    0.0000 H       1  UNL1        0.0265
     20 H           4.1306   -2.2250    0.0000 H       1  UNL1        0.0265
     21 H           2.3100    0.7869    0.0000 H       1  UNL1        0.0233
     22 H           1.4631    0.5600    0.0000 H       1  UNL1        0.0233
     23 H           1.6900   -0.2869    0.0000 H       1  UNL1        0.0233
     24 H           4.9081    1.2131    0.0000 H       1  UNL1        0.0274
     25 H           5.1350    2.0600    0.0000 H       1  UNL1        0.0274
     26 H           4.2881    2.2869    0.0000 H       1  UNL1        0.0274
     27 H           2.8660    2.3700    0.0000 H       1  UNL1        0.0534
     28 H           2.3291    1.4400    0.0000 H       1  UNL1        0.0534
@<TRIPOS>BOND
     1     1     2    1
     2     1     4    1
     3     1     7    1
     4     1    11    1
     5     2     3    1
     6     2     8    1
     7     2    12    1
     8     3     5    1
     9     3    13    1
    10     3    14    1
    11     4     6    1
    12     4    15    1
    13     4    16    1
    14     5     6    1
    15     5    17    1
    16     5    18    1
    17     6    19    1
    18     6    20    1
    19     7    21    1
    20     7    22    1
    21     7    23    1
    22     8     9    1
    23     8    10    2
    24     9    24    1
    25     9    25    1
    26     9    26    1
    27    10    27    1
    28    10    28    1
