@<TRIPOS>MOLECULE
IMPHY015332
 38 37 0 0 0
SMALL
GASTEIGER

@<TRIPOS>ATOM
      1 C           6.3301    0.0000    0.0000 C.3     1  UNL1       -0.0390
      2 C           5.4641    0.5000    0.0000 C.3     1  UNL1       -0.0500
      3 C           7.1962    0.5000    0.0000 C.3     1  UNL1       -0.0439
      4 C           4.5981   -0.0000    0.0000 C.3     1  UNL1       -0.0526
      5 C           6.3301   -1.0000    0.0000 C.3     1  UNL1       -0.0528
      6 C           3.7320    0.5000    0.0000 C.3     1  UNL1       -0.0507
      7 C           2.8660   -0.0000    0.0000 C.3     1  UNL1       -0.0467
      8 C           8.0622    0.0000    0.0000 C.3     1  UNL1       -0.0624
      9 C           7.1962    1.5000    0.0000 C.3     1  UNL1       -0.0624
     10 C           5.4641   -1.5000    0.0000 C.3     1  UNL1       -0.0650
     11 C           2.0000    0.5000    0.0000 C.3     1  UNL1       -0.0627
     12 C           2.8660   -1.0000    0.0000 C.3     1  UNL1       -0.0627
     13 H           6.8671   -0.3100    0.0000 H       1  UNL1        0.0303
     14 H           5.8626    0.9749    0.0000 H       1  UNL1        0.0268
     15 H           5.0656    0.9749    0.0000 H       1  UNL1        0.0268
     16 H           6.6592    0.8100    0.0000 H       1  UNL1        0.0298
     17 H           4.1996   -0.4749    0.0000 H       1  UNL1        0.0265
     18 H           4.9966   -0.4749    0.0000 H       1  UNL1        0.0265
     19 H           6.5422   -1.5826    0.0000 H       1  UNL1        0.0265
     20 H           6.9407   -0.8923    0.0000 H       1  UNL1        0.0265
     21 H           4.1306    0.9749    0.0000 H       1  UNL1        0.0268
     22 H           3.3335    0.9749    0.0000 H       1  UNL1        0.0268
     23 H           2.8660    0.6200    0.0000 H       1  UNL1        0.0295
     24 H           7.7522   -0.5369    0.0000 H       1  UNL1        0.0232
     25 H           8.5991   -0.3100    0.0000 H       1  UNL1        0.0232
     26 H           8.3722    0.5369    0.0000 H       1  UNL1        0.0232
     27 H           7.8162    1.5000    0.0000 H       1  UNL1        0.0232
     28 H           7.1962    2.1200    0.0000 H       1  UNL1        0.0232
     29 H           6.5762    1.5000    0.0000 H       1  UNL1        0.0232
     30 H           5.1541   -0.9631    0.0000 H       1  UNL1        0.0230
     31 H           4.9272   -1.8100    0.0000 H       1  UNL1        0.0230
     32 H           5.7741   -2.0369    0.0000 H       1  UNL1        0.0230
     33 H           2.3100    1.0369    0.0000 H       1  UNL1        0.0232
     34 H           1.4631    0.8100    0.0000 H       1  UNL1        0.0232
     35 H           1.6900   -0.0369    0.0000 H       1  UNL1        0.0232
     36 H           2.2460   -1.0000    0.0000 H       1  UNL1        0.0232
     37 H           2.8660   -1.6200    0.0000 H       1  UNL1        0.0232
     38 H           3.4860   -1.0000    0.0000 H       1  UNL1        0.0232
@<TRIPOS>BOND
     1     1     2    1
     2     1     3    1
     3     1     5    1
     4     1    13    1
     5     2     4    1
     6     2    14    1
     7     2    15    1
     8     3     8    1
     9     3     9    1
    10     3    16    1
    11     4     6    1
    12     4    17    1
    13     4    18    1
    14     5    10    1
    15     5    19    1
    16     5    20    1
    17     6     7    1
    18     6    21    1
    19     6    22    1
    20     7    11    1
    21     7    12    1
    22     7    23    1
    23     8    24    1
    24     8    25    1
    25     8    26    1
    26     9    27    1
    27     9    28    1
    28     9    29    1
    29    10    30    1
    30    10    31    1
    31    10    32    1
    32    11    33    1
    33    11    34    1
    34    11    35    1
    35    12    36    1
    36    12    37    1
    37    12    38    1
