@<TRIPOS>MOLECULE
IMPHY004074
 161 169 0 0 0
SMALL
GASTEIGER

@<TRIPOS>ATOM
      1 O          10.8882    4.1557    0.0000 O.3     1  UNL1       -0.3450
      2 O           9.3592    5.3876    0.0000 O.3     1  UNL1       -0.3642
      3 O           9.4651   -4.0884    0.0000 O.3     1  UNL1       -0.3454
      4 O           7.7331   -4.0884    0.0000 O.3     1  UNL1       -0.3405
      5 O          13.5227    7.2550    0.0000 O.3     1  UNL1       -0.3484
      6 O           9.4651   -6.0884    0.0000 O.3     1  UNL1       -0.3841
      7 O           7.7331   -7.0884    0.0000 O.3     1  UNL1       -0.3400
      8 O           6.0010   -6.0884    0.0000 O.3     1  UNL1       -0.3401
      9 O           6.0010   -3.0884    0.0000 O.3     1  UNL1       -0.3924
     10 O          15.0202    8.1255    0.0000 O.3     1  UNL1       -0.3405
     11 O           9.4651   -7.0884    0.0000 O.3     1  UNL1       -0.3405
     12 O           5.1350   -4.5884    0.0000 O.3     1  UNL1       -0.3405
     13 O          14.5279    5.5260    0.0000 O.3     1  UNL1       -0.3841
     14 O           7.7331   -9.0884    0.0000 O.3     1  UNL1       -0.3841
     15 O          16.5279    5.5319    0.0000 O.3     1  UNL1       -0.3864
     16 O           4.2690   -7.0884    0.0000 O.3     1  UNL1       -0.3841
     17 O          17.5227    7.2670    0.0000 O.3     1  UNL1       -0.3865
     18 O           9.4651  -10.0884    0.0000 O.3     1  UNL1       -0.3864
     19 O           2.5369   -6.0884    0.0000 O.3     1  UNL1       -0.3864
     20 O          11.1972   -9.0884    0.0000 O.3     1  UNL1       -0.3865
     21 O           2.5369   -4.0884    0.0000 O.3     1  UNL1       -0.3865
     22 O          16.0150    9.8605    0.0000 O.3     1  UNL1       -0.3924
     23 O          11.1972   -6.0884    0.0000 O.3     1  UNL1       -0.3924
     24 O           3.4030   -2.5884    0.0000 O.3     1  UNL1       -0.3924
     25 C           9.4944    2.1085    0.0000 C.3     1  UNL1       -0.0233
     26 C          10.3623    1.6118    0.0000 C.3     1  UNL1       -0.0298
     27 C          10.3662    0.6118    0.0000 C.3     1  UNL1       -0.0343
     28 C           9.6999    3.0811    0.0000 C.3     1  UNL1       -0.0015
     29 C           9.5021    0.1085    0.0000 C.3     1  UNL1       -0.0323
     30 C           9.4901   -0.9331    0.0000 C.3     1  UNL1       -0.0260
     31 C          10.6882    3.1880    0.0000 C.3     1  UNL1        0.0660
     32 C          11.0968    2.2817    0.0000 C.3     1  UNL1       -0.0226
     33 C           8.6303    1.6051    0.0000 C.3     1  UNL1       -0.0467
     34 C           8.6342    0.6051    0.0000 C.3     1  UNL1       -0.0489
     35 C          10.3901   -1.4574    0.0000 C.3     1  UNL1       -0.0330
     36 C           9.2976    3.9837    0.0000 C.3     1  UNL1        0.0158
     37 C          11.2781    0.1085    0.0000 C.3     1  UNL1       -0.0494
     38 C          11.2902   -0.9331    0.0000 C.3     1  UNL1       -0.0494
     39 C           8.6264    2.6051    0.0000 C.3     1  UNL1       -0.0590
     40 C          10.0305    4.6465    0.0000 C.3     1  UNL1        0.1704
     41 C           8.5402   -1.4574    0.0000 C.3     1  UNL1       -0.0448
     42 C          10.4027   -2.5423    0.0000 C.3     1  UNL1       -0.0232
     43 C           8.6260   -0.4297    0.0000 C.3     1  UNL1       -0.0590
     44 C           8.5276   -2.5423    0.0000 C.3     1  UNL1       -0.0260
     45 C           9.4651   -3.0884    0.0000 C.3     1  UNL1        0.0621
     46 C           8.3192    4.1904    0.0000 C.3     1  UNL1       -0.0572
     47 C          10.5279    5.5140    0.0000 C.3     1  UNL1        0.0018
     48 C          11.5279    5.5170    0.0000 C.3     1  UNL1       -0.0435
     49 C          12.0253    6.3845    0.0000 C.3     1  UNL1       -0.0201
     50 C           8.5991   -4.5884    0.0000 C.3     1  UNL1        0.1882
     51 C           8.5991   -5.5884    0.0000 C.3     1  UNL1        0.1345
     52 C          13.0253    6.3875    0.0000 C.3     1  UNL1        0.0533
     53 C          11.5228    7.2490    0.0000 C.3     1  UNL1       -0.0603
     54 C           7.7331   -6.0884    0.0000 C.3     1  UNL1        0.1209
     55 C           6.8671   -4.5884    0.0000 C.3     1  UNL1        0.1134
     56 C           6.8671   -5.5884    0.0000 C.3     1  UNL1        0.1188
     57 C           6.0010   -4.0884    0.0000 C.3     1  UNL1        0.0730
     58 C          14.5227    7.2580    0.0000 C.3     1  UNL1        0.1879
     59 C           8.5991   -7.5884    0.0000 C.3     1  UNL1        0.1884
     60 C          15.0253    6.3935    0.0000 C.3     1  UNL1        0.1341
     61 C           5.1350   -5.5884    0.0000 C.3     1  UNL1        0.1884
     62 C           8.5991   -8.5884    0.0000 C.3     1  UNL1        0.1341
     63 C          16.0253    6.3965    0.0000 C.3     1  UNL1        0.1141
     64 C           4.2690   -6.0884    0.0000 C.3     1  UNL1        0.1341
     65 C          16.0201    8.1285    0.0000 C.3     1  UNL1        0.1130
     66 C          16.5227    7.2640    0.0000 C.3     1  UNL1        0.1119
     67 C           9.4651   -9.0884    0.0000 C.3     1  UNL1        0.1141
     68 C          10.3312   -7.5884    0.0000 C.3     1  UNL1        0.1130
     69 C           3.4030   -5.5884    0.0000 C.3     1  UNL1        0.1141
     70 C          10.3312   -8.5884    0.0000 C.3     1  UNL1        0.1119
     71 C           4.2690   -4.0884    0.0000 C.3     1  UNL1        0.1130
     72 C           3.4030   -4.5884    0.0000 C.3     1  UNL1        0.1119
     73 C          16.5176    8.9960    0.0000 C.3     1  UNL1        0.0730
     74 C          11.1972   -7.0884    0.0000 C.3     1  UNL1        0.0730
     75 C           4.2690   -3.0884    0.0000 C.3     1  UNL1        0.0730
     76 H          10.9300    1.3626    0.0000 H       1  UNL1        0.0310
     77 H          10.8995    0.9280    0.0000 H       1  UNL1        0.0306
     78 H           9.0833    3.0158    0.0000 H       1  UNL1        0.0335
     79 H          10.0378   -0.2036    0.0000 H       1  UNL1        0.0309
     80 H          11.3044    3.2559    0.0000 H       1  UNL1        0.0600
     81 H          11.4642    1.7823    0.0000 H       1  UNL1        0.0293
     82 H          11.6321    2.5946    0.0000 H       1  UNL1        0.0293
     83 H           8.4160    2.1869    0.0000 H       1  UNL1        0.0271
     84 H           8.0201    1.4951    0.0000 H       1  UNL1        0.0271
     85 H           8.0232    0.7105    0.0000 H       1  UNL1        0.0268
     86 H           8.4244    0.0217    0.0000 H       1  UNL1        0.0268
     87 H          10.9294   -1.7632    0.0000 H       1  UNL1        0.0307
     88 H           8.9078    3.5015    0.0000 H       1  UNL1        0.0354
     89 H          11.8902    0.0095    0.0000 H       1  UNL1        0.0268
     90 H          11.4804    0.6946    0.0000 H       1  UNL1        0.0268
     91 H          11.5060   -1.5143    0.0000 H       1  UNL1        0.0268
     92 H          11.8998   -0.8199    0.0000 H       1  UNL1        0.0268
     93 H           8.9344    3.1433    0.0000 H       1  UNL1        0.0235
     94 H           8.0883    2.9131    0.0000 H       1  UNL1        0.0235
     95 H           8.3185    2.0670    0.0000 H       1  UNL1        0.0235
     96 H           8.3379   -0.8713    0.0000 H       1  UNL1        0.0271
     97 H           7.9281   -1.5564    0.0000 H       1  UNL1        0.0271
     98 H          10.6185   -3.1235    0.0000 H       1  UNL1        0.0293
     99 H          11.0123   -2.4291    0.0000 H       1  UNL1        0.0293
    100 H           8.9380    0.1060    0.0000 H       1  UNL1        0.0235
    101 H           8.0902   -0.1177    0.0000 H       1  UNL1        0.0235
    102 H           8.3139   -0.9655    0.0000 H       1  UNL1        0.0235
    103 H           7.9180   -2.4291    0.0000 H       1  UNL1        0.0290
    104 H           8.3118   -3.1235    0.0000 H       1  UNL1        0.0290
    105 H          10.0027   -3.3974    0.0000 H       1  UNL1        0.0597
    106 H           8.4473    4.7970    0.0000 H       1  UNL1        0.0234
    107 H           7.7125    4.3185    0.0000 H       1  UNL1        0.0234
    108 H           8.1910    3.5838    0.0000 H       1  UNL1        0.0234
    109 H          10.6338    6.1249    0.0000 H       1  UNL1        0.0317
    110 H           9.9447    5.7243    0.0000 H       1  UNL1        0.0317
    111 H           9.5490    5.9778    0.0000 H       1  UNL1        0.2128
    112 H          11.4221    4.9061    0.0000 H       1  UNL1        0.0270
    113 H          12.1112    5.3067    0.0000 H       1  UNL1        0.0270
    114 H          11.4053    6.3826    0.0000 H       1  UNL1        0.0320
    115 H           8.5991   -3.9684    0.0000 H       1  UNL1        0.0937
    116 H           8.5991   -6.2084    0.0000 H       1  UNL1        0.0671
    117 H          12.9195    5.7766    0.0000 H       1  UNL1        0.0563
    118 H          13.6086    6.1772    0.0000 H       1  UNL1        0.0563
    119 H          12.0588    7.5606    0.0000 H       1  UNL1        0.0233
    120 H          11.2112    7.7850    0.0000 H       1  UNL1        0.0233
    121 H          10.9868    6.9374    0.0000 H       1  UNL1        0.0233
    122 H           7.1962   -6.3984    0.0000 H       1  UNL1        0.0651
    123 H           6.8671   -3.9684    0.0000 H       1  UNL1        0.0647
    124 H           6.3301   -5.2784    0.0000 H       1  UNL1        0.0651
    125 H          10.0021   -5.7784    0.0000 H       1  UNL1        0.2101
    126 H           5.3905   -3.9807    0.0000 H       1  UNL1        0.0584
    127 H           5.7890   -4.6710    0.0000 H       1  UNL1        0.0584
    128 H          14.2111    7.7940    0.0000 H       1  UNL1        0.0937
    129 H           8.5991   -6.9684    0.0000 H       1  UNL1        0.0938
    130 H          14.4053    6.3916    0.0000 H       1  UNL1        0.0671
    131 H           5.1350   -6.2084    0.0000 H       1  UNL1        0.0938
    132 H           5.4641   -2.7784    0.0000 H       1  UNL1        0.2095
    133 H           8.5991   -9.2084    0.0000 H       1  UNL1        0.0671
    134 H          15.7169    5.8586    0.0000 H       1  UNL1        0.0648
    135 H           3.7320   -6.3984    0.0000 H       1  UNL1        0.0671
    136 H          15.7085    8.6645    0.0000 H       1  UNL1        0.0647
    137 H          16.8343    6.7280    0.0000 H       1  UNL1        0.0647
    138 H          10.0021   -9.3984    0.0000 H       1  UNL1        0.0648
    139 H          10.3312   -6.9684    0.0000 H       1  UNL1        0.0647
    140 H           2.8660   -5.2784    0.0000 H       1  UNL1        0.0648
    141 H          10.8681   -8.2784    0.0000 H       1  UNL1        0.0647
    142 H          14.8395    4.9899    0.0000 H       1  UNL1        0.2101
    143 H           4.8059   -3.7784    0.0000 H       1  UNL1        0.0647
    144 H           3.4030   -3.9684    0.0000 H       1  UNL1        0.0647
    145 H          16.9937    8.5989    0.0000 H       1  UNL1        0.0584
    146 H          16.9913    9.3960    0.0000 H       1  UNL1        0.0584
    147 H           7.1962   -8.7784    0.0000 H       1  UNL1        0.2101
    148 H          17.1479    5.5338    0.0000 H       1  UNL1        0.2100
    149 H           3.7320   -7.3984    0.0000 H       1  UNL1        0.2101
    150 H          11.4092   -7.6710    0.0000 H       1  UNL1        0.0584
    151 H          11.8078   -6.9807    0.0000 H       1  UNL1        0.0584
    152 H          17.8311    7.8048    0.0000 H       1  UNL1        0.2100
    153 H          10.0021  -10.3984    0.0000 H       1  UNL1        0.2100
    154 H           4.8796   -3.1961    0.0000 H       1  UNL1        0.0584
    155 H           4.4810   -2.5058    0.0000 H       1  UNL1        0.0584
    156 H           2.0000   -5.7784    0.0000 H       1  UNL1        0.2100
    157 H          11.7341   -8.7784    0.0000 H       1  UNL1        0.2100
    158 H           2.0000   -4.3984    0.0000 H       1  UNL1        0.2100
    159 H          16.3234   10.3984    0.0000 H       1  UNL1        0.2095
    160 H          11.7341   -5.7784    0.0000 H       1  UNL1        0.2095
    161 H           3.4030   -1.9684    0.0000 H       1  UNL1        0.2095
@<TRIPOS>BOND
     1     1    31    1
     2     1    40    1
     3     2    40    1
     4     2   111    1
     5     3    45    1
     6     3    50    1
     7     4    50    1
     8     4    55    1
     9     5    52    1
    10     5    58    1
    11     6    51    1
    12     6   125    1
    13     7    54    1
    14     7    59    1
    15     8    56    1
    16     8    61    1
    17     9    57    1
    18     9   132    1
    19    10    58    1
    20    10    65    1
    21    11    59    1
    22    11    68    1
    23    12    61    1
    24    12    71    1
    25    13    60    1
    26    13   142    1
    27    14    62    1
    28    14   147    1
    29    15    63    1
    30    15   148    1
    31    16    64    1
    32    16   149    1
    33    17    66    1
    34    17   152    1
    35    18    67    1
    36    18   153    1
    37    19    69    1
    38    19   156    1
    39    20    70    1
    40    20   157    1
    41    21    72    1
    42    21   158    1
    43    22    73    1
    44    22   159    1
    45    23    74    1
    46    23   160    1
    47    24    75    1
    48    24   161    1
    49    25    26    1
    50    25    28    1
    51    25    33    1
    52    25    39    1
    53    26    27    1
    54    26    32    1
    55    26    76    1
    56    27    29    1
    57    27    37    1
    58    27    77    1
    59    28    31    1
    60    28    36    1
    61    28    78    1
    62    29    30    1
    63    29    34    1
    64    29    79    1
    65    30    35    1
    66    30    41    1
    67    30    43    1
    68    31    32    1
    69    31    80    1
    70    32    81    1
    71    32    82    1
    72    33    34    1
    73    33    83    1
    74    33    84    1
    75    34    85    1
    76    34    86    1
    77    35    38    1
    78    35    42    1
    79    35    87    1
    80    36    40    1
    81    36    46    1
    82    36    88    1
    83    37    38    1
    84    37    89    1
    85    37    90    1
    86    38    91    1
    87    38    92    1
    88    39    93    1
    89    39    94    1
    90    39    95    1
    91    40    47    1
    92    41    44    1
    93    41    96    1
    94    41    97    1
    95    42    45    1
    96    42    98    1
    97    42    99    1
    98    43   100    1
    99    43   101    1
   100    43   102    1
   101    44    45    1
   102    44   103    1
   103    44   104    1
   104    45   105    1
   105    46   106    1
   106    46   107    1
   107    46   108    1
   108    47    48    1
   109    47   109    1
   110    47   110    1
   111    48    49    1
   112    48   112    1
   113    48   113    1
   114    49    52    1
   115    49    53    1
   116    49   114    1
   117    50    51    1
   118    50   115    1
   119    51    54    1
   120    51   116    1
   121    52   117    1
   122    52   118    1
   123    53   119    1
   124    53   120    1
   125    53   121    1
   126    54    56    1
   127    54   122    1
   128    55    56    1
   129    55    57    1
   130    55   123    1
   131    56   124    1
   132    57   126    1
   133    57   127    1
   134    58    60    1
   135    58   128    1
   136    59    62    1
   137    59   129    1
   138    60    63    1
   139    60   130    1
   140    61    64    1
   141    61   131    1
   142    62    67    1
   143    62   133    1
   144    63    66    1
   145    63   134    1
   146    64    69    1
   147    64   135    1
   148    65    66    1
   149    65    73    1
   150    65   136    1
   151    66   137    1
   152    67    70    1
   153    67   138    1
   154    68    70    1
   155    68    74    1
   156    68   139    1
   157    69    72    1
   158    69   140    1
   159    70   141    1
   160    71    72    1
   161    71    75    1
   162    71   143    1
   163    72   144    1
   164    73   145    1
   165    73   146    1
   166    74   150    1
   167    74   151    1
   168    75   154    1
   169    75   155    1
