@<TRIPOS>MOLECULE
IMPHY006572
 56 61 0 0 0
SMALL
GASTEIGER

@<TRIPOS>ATOM
      1 O           6.0682   -1.7500    0.0000 O.2     1  UNL1       -0.4620
      2 O          13.8625    1.7500    0.0000 O.2     1  UNL1       -0.4620
      3 O          10.3984    1.7500    0.0000 O.3     1  UNL1       -0.5062
      4 O           9.5323   -1.7500    0.0000 O.3     1  UNL1       -0.5062
      5 O           6.0682    1.2500    0.0000 O.2     1  UNL1       -0.2864
      6 O          13.8625   -1.2500    0.0000 O.2     1  UNL1       -0.2864
      7 O           2.5381   -1.7742    0.0000 O.3     1  UNL1       -0.5066
      8 O          17.3926    1.7742    0.0000 O.3     1  UNL1       -0.5066
      9 C          10.3984   -0.2500    0.0000 C.ar    1  UNL1        0.0276
     10 C           9.5323    0.2500    0.0000 C.ar    1  UNL1        0.0276
     11 C          12.1304   -0.2500    0.0000 C.ar    1  UNL1       -0.0105
     12 C           7.8003    0.2500    0.0000 C.ar    1  UNL1       -0.0105
     13 C          11.2644    0.2500    0.0000 C.ar    1  UNL1       -0.0425
     14 C           8.6663   -0.2500    0.0000 C.ar    1  UNL1       -0.0425
     15 C           6.9343   -0.2500    0.0000 C.ar    1  UNL1        0.0643
     16 C          12.9965    0.2500    0.0000 C.ar    1  UNL1        0.0643
     17 C           9.5323    1.2500    0.0000 C.ar    1  UNL1        0.1247
     18 C          10.3984   -1.2500    0.0000 C.ar    1  UNL1        0.1247
     19 C           7.8003    1.2500    0.0000 C.ar    1  UNL1       -0.0503
     20 C          12.1304   -1.2500    0.0000 C.ar    1  UNL1       -0.0503
     21 C          14.7285    0.2500    0.0000 C.ar    1  UNL1        0.0648
     22 C           5.2022   -0.2500    0.0000 C.ar    1  UNL1        0.0648
     23 C           6.0682    0.2500    0.0000 C.ar    1  UNL1        0.2001
     24 C          13.8625   -0.2500    0.0000 C.ar    1  UNL1        0.2001
     25 C           8.6663    1.7500    0.0000 C.ar    1  UNL1       -0.0190
     26 C          11.2644   -1.7500    0.0000 C.ar    1  UNL1       -0.0190
     27 C          14.7285    1.2500    0.0000 C.ar    1  UNL1        0.1419
     28 C           5.2022   -1.2500    0.0000 C.ar    1  UNL1        0.1419
     29 C          12.9965    1.2500    0.0000 C.ar    1  UNL1        0.1038
     30 C           6.9343   -1.2500    0.0000 C.ar    1  UNL1        0.1038
     31 C           4.3083    0.2847    0.0000 C.ar    1  UNL1       -0.0439
     32 C          15.6224   -0.2847    0.0000 C.ar    1  UNL1       -0.0439
     33 C           4.3083   -1.7847    0.0000 C.ar    1  UNL1        0.0228
     34 C          15.6224    1.7847    0.0000 C.ar    1  UNL1        0.0228
     35 C           3.4022   -0.2292    0.0000 C.ar    1  UNL1       -0.0193
     36 C          16.5285    0.2292    0.0000 C.ar    1  UNL1       -0.0193
     37 C          16.5285    1.2708    0.0000 C.ar    1  UNL1        0.1204
     38 C           3.4022   -1.2708    0.0000 C.ar    1  UNL1        0.1204
     39 H          11.2644    0.8700    0.0000 H       1  UNL1        0.0631
     40 H           8.6663   -0.8700    0.0000 H       1  UNL1        0.0631
     41 H           7.2634    1.5600    0.0000 H       1  UNL1        0.0625
     42 H          12.6674   -1.5600    0.0000 H       1  UNL1        0.0625
     43 H          11.2644   -2.3700    0.0000 H       1  UNL1        0.0654
     44 H           8.6663    2.3700    0.0000 H       1  UNL1        0.0654
     45 H          12.4595    1.5600    0.0000 H       1  UNL1        0.1037
     46 H           7.4712   -1.5600    0.0000 H       1  UNL1        0.1037
     47 H          15.6153   -0.9046    0.0000 H       1  UNL1        0.0627
     48 H           4.3154    0.9046    0.0000 H       1  UNL1        0.0627
     49 H          15.6153    2.4046    0.0000 H       1  UNL1        0.0691
     50 H           4.3154   -2.4046    0.0000 H       1  UNL1        0.0691
     51 H          17.0643   -0.0829    0.0000 H       1  UNL1        0.0654
     52 H           2.8665    0.0829    0.0000 H       1  UNL1        0.0654
     53 H          10.3984    2.3700    0.0000 H       1  UNL1        0.2922
     54 H           9.5323   -2.3700    0.0000 H       1  UNL1        0.2922
     55 H          17.9307    1.4662    0.0000 H       1  UNL1        0.2921
     56 H           2.0000   -1.4662    0.0000 H       1  UNL1        0.2921
@<TRIPOS>BOND
     1     1    28   ar
     2     1    30   ar
     3     2    27   ar
     4     2    29   ar
     5     3    17    1
     6     3    53    1
     7     4    18    1
     8     4    54    1
     9     5    23    2
    10     6    24    2
    11     7    38    1
    12     7    56    1
    13     8    37    1
    14     8    55    1
    15     9    10    1
    16     9    13   ar
    17     9    18   ar
    18    10    14   ar
    19    10    17   ar
    20    11    13   ar
    21    11    16    1
    22    11    20   ar
    23    12    14   ar
    24    12    15    1
    25    12    19   ar
    26    13    39    1
    27    14    40    1
    28    15    23   ar
    29    15    30   ar
    30    16    24   ar
    31    16    29   ar
    32    17    25   ar
    33    18    26   ar
    34    19    25   ar
    35    19    41    1
    36    20    26   ar
    37    20    42    1
    38    21    24   ar
    39    21    27   ar
    40    21    32   ar
    41    22    23   ar
    42    22    28   ar
    43    22    31   ar
    44    25    44    1
    45    26    43    1
    46    27    34   ar
    47    28    33   ar
    48    29    45    1
    49    30    46    1
    50    31    35   ar
    51    31    48    1
    52    32    36   ar
    53    32    47    1
    54    33    38   ar
    55    33    50    1
    56    34    37   ar
    57    34    49    1
    58    35    38   ar
    59    35    52    1
    60    36    37   ar
    61    36    51    1
