@<TRIPOS>MOLECULE
IMPHY002068
 41 45 0 0 0
SMALL
GASTEIGER

@<TRIPOS>ATOM
      1 O          10.7758   -0.8363    0.0000 O.3     1  UNL1       -0.4858
      2 O           8.0505    1.5129    0.0000 O.2     1  UNL1       -0.4214
      3 O           5.9065   -0.5556    0.0000 O.2     1  UNL1       -0.4537
      4 O           6.7634    2.6719    0.0000 O.2     1  UNL1       -0.2444
      5 O           2.4170    0.3487    0.0000 O.3     1  UNL1       -0.5066
      6 C          11.1190   -1.8656    0.0000 C.3     1  UNL1        0.1054
      7 C          10.3930   -2.6719    0.0000 C.3     1  UNL1       -0.0093
      8 C           9.3335   -2.4381    0.0000 C.3     1  UNL1       -0.0206
      9 C           9.0142   -1.4012    0.0000 C.ar    1  UNL1       -0.0046
     10 C           9.7112   -0.6271    0.0000 C.ar    1  UNL1        0.1280
     11 C          11.8647   -2.5318    0.0000 C.3     1  UNL1       -0.0252
     12 C          12.0689   -1.5529    0.0000 C.3     1  UNL1       -0.0252
     13 C           7.9970   -1.1768    0.0000 C.ar    1  UNL1       -0.0409
     14 C           7.6904   -0.1813    0.0000 C.ar    1  UNL1        0.0609
     15 C           9.3816    0.3610    0.0000 C.ar    1  UNL1        0.0235
     16 C           8.3596    0.5619    0.0000 C.ar    1  UNL1        0.1461
     17 C           6.7123    0.0266    0.0000 C.ar    1  UNL1        0.1538
     18 C           6.4033    0.9777    0.0000 C.ar    1  UNL1        0.1128
     19 C           5.4092    0.9751    0.0000 C.ar    1  UNL1        0.0351
     20 C           5.1028    0.0294    0.0000 C.ar    1  UNL1        0.1400
     21 C           7.0724    1.7208    0.0000 C.ar    1  UNL1        0.3488
     22 C           4.7276    1.7546    0.0000 C.ar    1  UNL1       -0.0467
     23 C           4.0936   -0.2023    0.0000 C.ar    1  UNL1        0.0228
     24 C           3.7133    1.5463    0.0000 C.ar    1  UNL1       -0.0194
     25 C           3.3942    0.5612    0.0000 C.ar    1  UNL1        0.1204
     26 H          10.1578   -3.2455    0.0000 H       1  UNL1        0.0307
     27 H          10.9180   -3.0018    0.0000 H       1  UNL1        0.0307
     28 H           8.7185   -2.5165    0.0000 H       1  UNL1        0.0316
     29 H           9.3055   -3.0575    0.0000 H       1  UNL1        0.0316
     30 H          12.2627   -2.1418    0.0000 H       1  UNL1        0.0268
     31 H          12.6578   -1.3590    0.0000 H       1  UNL1        0.0268
     32 H          11.4517   -2.9942    0.0000 H       1  UNL1        0.0268
     33 H          12.3271   -2.9449    0.0000 H       1  UNL1        0.0268
     34 H          12.2778   -2.0695    0.0000 H       1  UNL1        0.0268
     35 H          11.8750   -0.9640    0.0000 H       1  UNL1        0.0268
     36 H           7.5768   -1.6327    0.0000 H       1  UNL1        0.0630
     37 H           9.7912    0.8265    0.0000 H       1  UNL1        0.0691
     38 H           4.9255    2.3422    0.0000 H       1  UNL1        0.0626
     39 H           3.9094   -0.7943    0.0000 H       1  UNL1        0.0691
     40 H           3.2998    2.0082    0.0000 H       1  UNL1        0.0654
     41 H           2.0000    0.8075    0.0000 H       1  UNL1        0.2921
@<TRIPOS>BOND
     1     1     6    1
     2     1    10    1
     3     2    16   ar
     4     2    21   ar
     5     3    17   ar
     6     3    20   ar
     7     4    21    2
     8     5    25    1
     9     5    41    1
    10     6     7    1
    11     6    11    1
    12     6    12    1
    13     7     8    1
    14     7    26    1
    15     7    27    1
    16     8     9    1
    17     8    28    1
    18     8    29    1
    19     9    10   ar
    20     9    13   ar
    21    10    15   ar
    22    11    32    1
    23    11    33    1
    24    11    34    1
    25    12    30    1
    26    12    31    1
    27    12    35    1
    28    13    14   ar
    29    13    36    1
    30    14    16   ar
    31    14    17   ar
    32    15    16   ar
    33    15    37    1
    34    17    18   ar
    35    18    19   ar
    36    18    21   ar
    37    19    20   ar
    38    19    22   ar
    39    20    23   ar
    40    22    24   ar
    41    22    38    1
    42    23    25   ar
    43    23    39    1
    44    24    25   ar
    45    24    40    1
