@<TRIPOS>MOLECULE
IMPHY004368
 41 43 0 0 0
SMALL
GASTEIGER

@<TRIPOS>ATOM
      1 O           3.7230   -0.2119    0.0000 O.3     1  UNL1       -0.4571
      2 O           5.4378   -2.1071    0.0000 O.3     1  UNL1       -0.3884
      3 O           7.3840    1.8941    0.0000 O.3     1  UNL1       -0.3886
      4 O           2.0000    0.2202    0.0000 O.2     1  UNL1       -0.2453
      5 C           5.4786   -0.1382    0.0000 C.3     1  UNL1        0.0307
      6 C           6.3796    0.2957    0.0000 C.3     1  UNL1       -0.0035
      7 C           5.6146   -1.1229    0.0000 C.3     1  UNL1        0.0699
      8 C           4.5777    0.2957    0.0000 C.3     1  UNL1        0.1161
      9 C           6.6021    1.2706    0.0000 C.3     1  UNL1        0.0666
     10 C           7.0647   -0.4246    0.0000 C.3     1  UNL1       -0.0446
     11 C           6.5929   -1.2996    0.0000 C.3     1  UNL1       -0.0235
     12 C           4.3551    1.2706    0.0000 C.3     1  UNL1        0.0279
     13 C           5.9786    2.0525    0.0000 C.3     1  UNL1       -0.0233
     14 C           4.9786    2.0525    0.0000 C.3     1  UNL1       -0.0400
     15 C           4.6239   -1.2588    0.0000 C.3     1  UNL1       -0.0357
     16 C           7.5770    1.0481    0.0000 C.3     1  UNL1       -0.0358
     17 C           3.3648    1.3572    0.0000 C.2     1  UNL1        0.0361
     18 C           2.9749    0.4428    0.0000 C.2     1  UNL1        0.3353
     19 C           2.8504    2.2147    0.0000 C.2     1  UNL1       -0.0883
     20 H           4.7916   -0.6387    0.0000 H       1  UNL1        0.0368
     21 H           7.1993    0.5208    0.0000 H       1  UNL1        0.0333
     22 H           4.6147   -0.5535    0.0000 H       1  UNL1        0.0744
     23 H           7.5765   -0.7746    0.0000 H       1  UNL1        0.0270
     24 H           7.4666    0.0476    0.0000 H       1  UNL1        0.0270
     25 H           6.4192   -1.8947    0.0000 H       1  UNL1        0.0293
     26 H           7.1665   -1.5348    0.0000 H       1  UNL1        0.0293
     27 H           4.0200    2.0518    0.0000 H       1  UNL1        0.0387
     28 H           6.5372    2.3215    0.0000 H       1  UNL1        0.0293
     29 H           5.8407    2.6569    0.0000 H       1  UNL1        0.0293
     30 H           5.1166    2.6569    0.0000 H       1  UNL1        0.0273
     31 H           4.4200    2.3215    0.0000 H       1  UNL1        0.0273
     32 H           4.5396   -0.6446    0.0000 H       1  UNL1        0.0257
     33 H           4.0097   -1.3431    0.0000 H       1  UNL1        0.0257
     34 H           4.7082   -1.8731    0.0000 H       1  UNL1        0.0257
     35 H           7.4391    0.4437    0.0000 H       1  UNL1        0.0257
     36 H           8.1815    0.9102    0.0000 H       1  UNL1        0.0257
     37 H           7.7150    1.6526    0.0000 H       1  UNL1        0.0257
     38 H           5.9114   -2.5072    0.0000 H       1  UNL1        0.2102
     39 H           7.2916    2.5072    0.0000 H       1  UNL1        0.2102
     40 H           3.1514    2.7568    0.0000 H       1  UNL1        0.0540
     41 H           2.2305    2.2044    0.0000 H       1  UNL1        0.0540
@<TRIPOS>BOND
     1     1     8    1
     2     1    18    1
     3     7     2    1
     4     2    38    1
     5     9     3    1
     6     3    39    1
     7     4    18    2
     8     5     6    1
     9     5     7    1
    10     5     8    1
    11     5    20    1
    12     6     9    1
    13     6    10    1
    14     6    21    1
    15     7    11    1
    16     7    15    1
    17     8    12    1
    18     8    22    1
    19     9    13    1
    20     9    16    1
    21    10    11    1
    22    10    23    1
    23    10    24    1
    24    11    25    1
    25    11    26    1
    26    12    14    1
    27    12    17    1
    28    12    27    1
    29    13    14    1
    30    13    28    1
    31    13    29    1
    32    14    30    1
    33    14    31    1
    34    15    32    1
    35    15    33    1
    36    15    34    1
    37    16    35    1
    38    16    36    1
    39    16    37    1
    40    17    18    1
    41    17    19    2
    42    19    40    1
    43    19    41    1
