@<TRIPOS>MOLECULE
IMPHY001892
 22 23 0 0 0
SMALL
GASTEIGER

@<TRIPOS>ATOM
      1 O           4.3709    0.7631    0.0000 O.3     1  UNL1       -0.3738
      2 O           6.2619   -0.9932    0.0000 O.2     1  UNL1       -0.2719
      3 N           4.6783   -1.7980    0.0000 N.am    1  UNL1       -0.2825
      4 N           5.2827    2.3873    0.0000 N.1     1  UNL1       -0.1964
      5 C           4.6783   -0.1885    0.0000 C.3     1  UNL1        0.1810
      6 C           3.7320   -0.4932    0.0000 C.ar    1  UNL1        0.0149
      7 C           3.7320   -1.4932    0.0000 C.ar    1  UNL1        0.0399
      8 C           5.2619   -0.9932    0.0000 C.2     1  UNL1        0.2546
      9 C           5.4883    0.3979    0.0000 C.3     1  UNL1        0.0764
     10 C           2.8660    0.0068    0.0000 C.ar    1  UNL1       -0.0536
     11 C           2.8660   -1.9932    0.0000 C.ar    1  UNL1       -0.0401
     12 C           2.0000   -0.4932    0.0000 C.ar    1  UNL1       -0.0613
     13 C           2.0000   -1.4932    0.0000 C.ar    1  UNL1       -0.0600
     14 C           5.3855    1.3926    0.0000 C.1     1  UNL1        0.0662
     15 H           5.7591   -0.1598    0.0000 H       1  UNL1        0.0455
     16 H           6.0846    0.5677    0.0000 H       1  UNL1        0.0455
     17 H           4.8709   -2.3873    0.0000 H       1  UNL1        0.1549
     18 H           2.8660    0.6268    0.0000 H       1  UNL1        0.0622
     19 H           2.8660   -2.6132    0.0000 H       1  UNL1        0.0636
     20 H           3.7647    0.8930    0.0000 H       1  UNL1        0.2113
     21 H           1.4631   -0.1832    0.0000 H       1  UNL1        0.0618
     22 H           1.4631   -1.8032    0.0000 H       1  UNL1        0.0618
@<TRIPOS>BOND
     1     1     5    1
     2     1    20    1
     3     2     8    2
     4     3     7    1
     5     3     8   am
     6     3    17    1
     7     4    14    3
     8     5     6    1
     9     5     8    1
    10     5     9    1
    11     6     7   ar
    12     6    10   ar
    13     7    11   ar
    14     9    14    1
    15     9    15    1
    16     9    16    1
    17    10    12   ar
    18    10    18    1
    19    11    13   ar
    20    11    19    1
    21    12    13   ar
    22    12    21    1
    23    13    22    1
