@<TRIPOS>MOLECULE
IMPHY013347
 51 55 0 0 0
SMALL
GASTEIGER

@<TRIPOS>ATOM
      1 CL          2.8701    0.0000    0.0000 Cl      1  UNL1       -0.1454
      2 O           5.4504    8.0982    0.0000 O.3     2  UNL2       -0.4677
      3 O           3.7183    8.0982    0.0000 O.2     2  UNL2       -0.2505
      4 N           4.5844    3.7941    0.0000 N.3     2  UNL2       -0.2938
      5 N           2.9654    6.5982    0.0000 N.pl3   2  UNL2       -0.3390
      6 C           3.7749    5.1962    0.0000 C.3     2  UNL2        0.0371
      7 C           4.5844    4.7288    0.0000 C.3     2  UNL2        0.0317
      8 C           5.3939    5.1962    0.0000 C.3     2  UNL2        0.0089
      9 C           2.8420    4.6042    0.0000 C.3     2  UNL2       -0.0119
     10 C           4.2888    4.1635    0.0000 C.3     2  UNL2       -0.0284
     11 C           3.7749    6.1309    0.0000 C.3     2  UNL2        0.0450
     12 C           3.7749    3.3267    0.0000 C.3     2  UNL2        0.0036
     13 C           5.3939    6.1309    0.0000 C.3     2  UNL2       -0.0275
     14 C           4.5844    6.5982    0.0000 C.3     2  UNL2        0.0763
     15 C           2.1559    5.1962    0.0000 C.ar    2  UNL2       -0.0168
     16 C           6.2034    4.7288    0.0000 C.2     2  UNL2       -0.0787
     17 C           5.3939    3.3267    0.0000 C.3     2  UNL2        0.0175
     18 C           4.5148    3.1894    0.0000 C.3     2  UNL2       -0.0613
     19 C           2.1559    6.1309    0.0000 C.ar    2  UNL2        0.0312
     20 C           6.2034    3.7941    0.0000 C.2     2  UNL2       -0.0734
     21 C           4.5844    7.5982    0.0000 C.2     2  UNL2        0.3118
     22 C           1.3464    4.7288    0.0000 C.ar    2  UNL2       -0.0562
     23 C           1.3464    6.5982    0.0000 C.ar    2  UNL2       -0.0406
     24 C           0.5369    5.1962    0.0000 C.ar    2  UNL2       -0.0614
     25 C           0.5369    6.1309    0.0000 C.ar    2  UNL2       -0.0600
     26 C           5.4504    9.0982    0.0000 C.3     2  UNL2        0.0817
     27 H           5.1213    4.4188    0.0000 H       2  UNL2        0.0481
     28 H           2.2328    4.7196    0.0000 H       2  UNL2        0.0326
     29 H           4.8819    3.9829    0.0000 H       2  UNL2        0.0310
     30 H           3.7749    6.7509    0.0000 H       2  UNL2        0.0515
     31 H           3.2614    2.9792    0.0000 H       2  UNL2        0.0430
     32 H           4.1039    2.8012    0.0000 H       2  UNL2        0.0430
     33 H           6.0044    6.0232    0.0000 H       2  UNL2        0.0283
     34 H           5.6059    6.7135    0.0000 H       2  UNL2        0.0283
     35 H           5.1213    6.9082    0.0000 H       2  UNL2        0.0432
     36 H           6.7403    5.0388    0.0000 H       2  UNL2        0.0576
     37 H           4.9953    2.8518    0.0000 H       2  UNL2        0.0470
     38 H           5.7924    2.8518    0.0000 H       2  UNL2        0.0470
     39 H           2.9654    7.2182    0.0000 H       2  UNL2        0.1464
     40 H           3.9108    3.0493    0.0000 H       2  UNL2        0.0233
     41 H           4.6549    2.5854    0.0000 H       2  UNL2        0.0233
     42 H           5.1188    3.3295    0.0000 H       2  UNL2        0.0233
     43 H           6.7403    3.4841    0.0000 H       2  UNL2        0.0582
     44 H           1.3464    4.1088    0.0000 H       2  UNL2        0.0621
     45 H           1.3464    7.2182    0.0000 H       2  UNL2        0.0636
     46 H           0.0000    4.8862    0.0000 H       2  UNL2        0.0618
     47 H           0.0000    6.4409    0.0000 H       2  UNL2        0.0618
     48 H           6.0704    9.0982    0.0000 H       2  UNL2        0.0661
     49 H           5.4504    9.7182    0.0000 H       2  UNL2        0.0661
     50 H           4.8304    9.0982    0.0000 H       2  UNL2        0.0661
     51 H           3.8701    0.0000    0.0000 H       1  UNL1        0.1454
@<TRIPOS>BOND
     1     1    51    1
     2     2    21    1
     3     2    26    1
     4     3    21    2
     5     4     7    1
     6     4    12    1
     7     4    17    1
     8     5    11    1
     9     5    19    1
    10     5    39    1
    11     6     7    1
    12     6     9    1
    13     6    11    1
    14     6    15    1
    15     7     8    1
    16     7    27    1
    17     8    10    1
    18     8    13    1
    19     8    16    1
    20     9    10    1
    21     9    12    1
    22     9    28    1
    23    10    18    1
    24    10    29    1
    25    11    14    1
    26    11    30    1
    27    12    31    1
    28    12    32    1
    29    13    14    1
    30    13    33    1
    31    13    34    1
    32    14    21    1
    33    14    35    1
    34    15    19   ar
    35    15    22   ar
    36    16    20    2
    37    16    36    1
    38    17    20    1
    39    17    37    1
    40    17    38    1
    41    18    40    1
    42    18    41    1
    43    18    42    1
    44    19    23   ar
    45    20    43    1
    46    22    24   ar
    47    22    44    1
    48    23    25   ar
    49    23    45    1
    50    24    25   ar
    51    24    46    1
    52    25    47    1
    53    26    48    1
    54    26    49    1
    55    26    50    1
