@<TRIPOS>MOLECULE
IMPHY017846
 44 43 0 0 0
SMALL
GASTEIGER

@<TRIPOS>ATOM
      1 O           4.5981   -0.5000    0.0000 O.3     1  UNL1       -0.4581
      2 O           8.0622    0.5000    0.0000 O.3     1  UNL1       -0.4640
      3 O           3.7320    1.0000    0.0000 O.2     1  UNL1       -0.2505
      4 O           8.9282   -1.0000    0.0000 O.2     1  UNL1       -0.2506
      5 C           5.4641    0.0000    0.0000 C.3     1  UNL1        0.1136
      6 C           6.3301    0.5000    0.0000 C.3     1  UNL1        0.0299
      7 C           7.1962    0.0000    0.0000 C.3     1  UNL1        0.0986
      8 C           4.9641    0.8660    0.0000 C.3     1  UNL1       -0.0247
      9 C           5.9641   -0.8660    0.0000 C.3     1  UNL1       -0.0247
     10 C           6.3301    1.5000    0.0000 C.3     1  UNL1       -0.0557
     11 C           3.7320   -0.0000    0.0000 C.2     1  UNL1        0.3102
     12 C           2.8660   -0.5000    0.0000 C.3     1  UNL1        0.0509
     13 C           8.9282   -0.0000    0.0000 C.2     1  UNL1        0.3097
     14 C           9.7942    0.5000    0.0000 C.3     1  UNL1        0.0508
     15 C           2.0000   -0.0000    0.0000 C.3     1  UNL1       -0.0525
     16 C           2.8660   -1.5000    0.0000 C.3     1  UNL1       -0.0525
     17 C          10.6603   -0.0000    0.0000 C.3     1  UNL1       -0.0525
     18 C           9.7942    1.5000    0.0000 C.3     1  UNL1       -0.0525
     19 H           6.8671    0.8100    0.0000 H       1  UNL1        0.0370
     20 H           6.7976   -0.4749    0.0000 H       1  UNL1        0.0701
     21 H           7.5947   -0.4749    0.0000 H       1  UNL1        0.0701
     22 H           5.5010    1.1760    0.0000 H       1  UNL1        0.0268
     23 H           4.6541    1.4030    0.0000 H       1  UNL1        0.0268
     24 H           4.4272    0.5560    0.0000 H       1  UNL1        0.0268
     25 H           5.4272   -1.1760    0.0000 H       1  UNL1        0.0268
     26 H           6.2741   -1.4030    0.0000 H       1  UNL1        0.0268
     27 H           6.5010   -0.5560    0.0000 H       1  UNL1        0.0268
     28 H           6.9501    1.5000    0.0000 H       1  UNL1        0.0235
     29 H           6.3301    2.1200    0.0000 H       1  UNL1        0.0235
     30 H           5.7101    1.5000    0.0000 H       1  UNL1        0.0235
     31 H           2.8660    0.1200    0.0000 H       1  UNL1        0.0408
     32 H           9.2573    0.8100    0.0000 H       1  UNL1        0.0408
     33 H           2.3100    0.5369    0.0000 H       1  UNL1        0.0237
     34 H           1.4631    0.3100    0.0000 H       1  UNL1        0.0237
     35 H           1.6900   -0.5369    0.0000 H       1  UNL1        0.0237
     36 H           2.2460   -1.5000    0.0000 H       1  UNL1        0.0237
     37 H           2.8660   -2.1200    0.0000 H       1  UNL1        0.0237
     38 H           3.4860   -1.5000    0.0000 H       1  UNL1        0.0237
     39 H          10.3503   -0.5369    0.0000 H       1  UNL1        0.0237
     40 H          11.1972   -0.3100    0.0000 H       1  UNL1        0.0237
     41 H          10.9703    0.5369    0.0000 H       1  UNL1        0.0237
     42 H          10.4142    1.5000    0.0000 H       1  UNL1        0.0237
     43 H           9.7942    2.1200    0.0000 H       1  UNL1        0.0237
     44 H           9.1742    1.5000    0.0000 H       1  UNL1        0.0237
@<TRIPOS>BOND
     1     1     5    1
     2     1    11    1
     3     2     7    1
     4     2    13    1
     5     3    11    2
     6     4    13    2
     7     5     6    1
     8     5     8    1
     9     5     9    1
    10     6     7    1
    11     6    10    1
    12     6    19    1
    13     7    20    1
    14     7    21    1
    15     8    22    1
    16     8    23    1
    17     8    24    1
    18     9    25    1
    19     9    26    1
    20     9    27    1
    21    10    28    1
    22    10    29    1
    23    10    30    1
    24    11    12    1
    25    12    15    1
    26    12    16    1
    27    12    31    1
    28    13    14    1
    29    14    17    1
    30    14    18    1
    31    14    32    1
    32    15    33    1
    33    15    34    1
    34    15    35    1
    35    16    36    1
    36    16    37    1
    37    16    38    1
    38    17    39    1
    39    17    40    1
    40    17    41    1
    41    18    42    1
    42    18    43    1
    43    18    44    1
