@<TRIPOS>MOLECULE
IMPHY003286
 24 24 0 0 0
SMALL
GASTEIGER

@<TRIPOS>ATOM
      1 O           3.7320    2.0950    0.0000 O.3     1  UNL1       -0.5062
      2 O           4.5981   -2.4050    0.0000 O.2     1  UNL1       -0.2924
      3 C           4.5981    0.5950    0.0000 C.ar    1  UNL1       -0.0081
      4 C           2.8660    0.5950    0.0000 C.ar    1  UNL1       -0.0081
      5 C           3.7320   -0.9050    0.0000 C.ar    1  UNL1        0.0178
      6 C           3.7320    1.0950    0.0000 C.ar    1  UNL1        0.1227
      7 C           4.5981   -0.4050    0.0000 C.ar    1  UNL1       -0.0449
      8 C           2.8660   -0.4050    0.0000 C.ar    1  UNL1       -0.0449
      9 C           5.4641    1.0950    0.0000 C.3     1  UNL1       -0.0362
     10 C           2.0000    1.0950    0.0000 C.3     1  UNL1       -0.0362
     11 C           3.7320   -1.9050    0.0000 C.2     1  UNL1        0.1601
     12 C           2.8660   -2.4050    0.0000 C.3     1  UNL1       -0.0014
     13 H           5.1350   -0.7150    0.0000 H       1  UNL1        0.0628
     14 H           2.3291   -0.7150    0.0000 H       1  UNL1        0.0628
     15 H           5.7741    0.5581    0.0000 H       1  UNL1        0.0279
     16 H           6.0010    1.4050    0.0000 H       1  UNL1        0.0279
     17 H           5.1541    1.6319    0.0000 H       1  UNL1        0.0279
     18 H           2.3100    1.6319    0.0000 H       1  UNL1        0.0279
     19 H           1.4631    1.4050    0.0000 H       1  UNL1        0.0279
     20 H           1.6900    0.5581    0.0000 H       1  UNL1        0.0279
     21 H           2.5560   -1.8681    0.0000 H       1  UNL1        0.0309
     22 H           2.3291   -2.7150    0.0000 H       1  UNL1        0.0309
     23 H           3.1760   -2.9419    0.0000 H       1  UNL1        0.0309
     24 H           4.2690    2.4050    0.0000 H       1  UNL1        0.2922
@<TRIPOS>BOND
     1     1     6    1
     2     1    24    1
     3     2    11    2
     4     3     6   ar
     5     3     7   ar
     6     3     9    1
     7     4     6   ar
     8     4     8   ar
     9     4    10    1
    10     5     7   ar
    11     5     8   ar
    12     5    11    1
    13     7    13    1
    14     8    14    1
    15     9    15    1
    16     9    16    1
    17     9    17    1
    18    10    18    1
    19    10    19    1
    20    10    20    1
    21    11    12    1
    22    12    21    1
    23    12    22    1
    24    12    23    1
