@<TRIPOS>MOLECULE
IMPHY001606
 127 132 0 0 0
SMALL
GASTEIGER

@<TRIPOS>ATOM
      1 O           5.1643    3.3253    0.0000 O.3     1  UNL1       -0.3915
      2 O           6.8671   -2.8649    0.0000 O.3     1  UNL1       -0.3449
      3 O           7.1728    5.7170    0.0000 O.3     1  UNL1       -0.3886
      4 O           5.1350   -2.8649    0.0000 O.3     1  UNL1       -0.3405
      5 O           6.8671   -4.8649    0.0000 O.3     1  UNL1       -0.3378
      6 O           5.1350   -5.8649    0.0000 O.3     1  UNL1       -0.3864
      7 O           3.4030   -4.8649    0.0000 O.3     1  UNL1       -0.3865
      8 O           6.0010   -6.3649    0.0000 O.3     1  UNL1       -0.3407
      9 O           2.5369   -3.3649    0.0000 O.3     1  UNL1       -0.3924
     10 O           8.5991   -5.8649    0.0000 O.3     1  UNL1       -0.3863
     11 O           6.8671   -8.8649    0.0000 O.3     1  UNL1       -0.3887
     12 O           8.5991   -8.8649    0.0000 O.3     1  UNL1       -0.3946
     13 O           4.2690   -7.3649    0.0000 O.3     1  UNL1       -0.3924
     14 C           7.7643    2.8353    0.0000 C.3     1  UNL1       -0.0234
     15 C           7.7681    1.8353    0.0000 C.3     1  UNL1       -0.0319
     16 C           6.9040    1.3320    0.0000 C.3     1  UNL1       -0.0297
     17 C           6.8920    0.2904    0.0000 C.3     1  UNL1       -0.0254
     18 C           6.8963    3.3320    0.0000 C.3     1  UNL1       -0.0039
     19 C           7.7920   -0.2339    0.0000 C.3     1  UNL1       -0.0279
     20 C           7.1018    4.3046    0.0000 C.3     1  UNL1       -0.0067
     21 C           6.0361    1.8286    0.0000 C.3     1  UNL1       -0.0230
     22 C           8.6801    1.3320    0.0000 C.3     1  UNL1       -0.0491
     23 C           6.0322    2.8286    0.0000 C.3     1  UNL1        0.0592
     24 C           8.4987    3.5052    0.0000 C.3     1  UNL1       -0.0467
     25 C           8.6921    0.2904    0.0000 C.3     1  UNL1       -0.0489
     26 C           7.8046   -1.3188    0.0000 C.3     1  UNL1       -0.0052
     27 C           5.9421   -0.2339    0.0000 C.3     1  UNL1       -0.0447
     28 C           8.0901    4.4114    0.0000 C.3     1  UNL1       -0.0467
     29 C           8.6322    2.3387    0.0000 C.3     1  UNL1       -0.0590
     30 C           6.8671   -1.8649    0.0000 C.3     1  UNL1        0.0672
     31 C           6.0279    0.7938    0.0000 C.3     1  UNL1       -0.0590
     32 C           5.9295   -1.3188    0.0000 C.3     1  UNL1       -0.0255
     33 C           6.4311    5.0463    0.0000 C.3     1  UNL1        0.0668
     34 C           8.8046   -1.3111    0.0000 C.3     1  UNL1       -0.0572
     35 C           8.3113   -2.1809    0.0000 C.3     1  UNL1       -0.0572
     36 C           5.7604    5.7880    0.0000 C.3     1  UNL1       -0.0206
     37 C           5.6894    4.3756    0.0000 C.3     1  UNL1       -0.0358
     38 C           6.0674    6.7397    0.0000 C.3     1  UNL1       -0.0319
     39 C           6.0010   -3.3649    0.0000 C.3     1  UNL1        0.1886
     40 C           6.0010   -4.3649    0.0000 C.3     1  UNL1        0.1406
     41 C           5.3966    7.4815    0.0000 C.2     1  UNL1       -0.0852
     42 C           5.1350   -4.8649    0.0000 C.3     1  UNL1        0.1144
     43 C           4.2690   -3.3649    0.0000 C.3     1  UNL1        0.1130
     44 C           4.2690   -4.3649    0.0000 C.3     1  UNL1        0.1119
     45 C           5.7036    8.4332    0.0000 C.2     1  UNL1       -0.0796
     46 C           3.4030   -2.8649    0.0000 C.3     1  UNL1        0.0730
     47 C           6.8671   -5.8649    0.0000 C.3     1  UNL1        0.1864
     48 C           5.0329    9.1749    0.0000 C.3     1  UNL1       -0.0440
     49 C           6.6814    8.6432    0.0000 C.3     1  UNL1       -0.0440
     50 C           7.7331   -6.3649    0.0000 C.3     1  UNL1        0.1133
     51 C           7.7331   -7.3649    0.0000 C.3     1  UNL1        0.0414
     52 C           6.0010   -7.3649    0.0000 C.3     1  UNL1        0.1109
     53 C           6.8671   -7.8649    0.0000 C.3     1  UNL1        0.0910
     54 C           8.5991   -7.8649    0.0000 C.3     1  UNL1        0.0520
     55 C           5.1350   -7.8649    0.0000 C.3     1  UNL1        0.0729
     56 H           8.3014    2.1515    0.0000 H       1  UNL1        0.0309
     57 H           7.4398    1.0199    0.0000 H       1  UNL1        0.0310
     58 H           6.2074    3.8298    0.0000 H       1  UNL1        0.0335
     59 H           8.3314   -0.5397    0.0000 H       1  UNL1        0.0312
     60 H           7.4044    5.0989    0.0000 H       1  UNL1        0.0332
     61 H           5.4251    1.9340    0.0000 H       1  UNL1        0.0293
     62 H           5.8263    1.2452    0.0000 H       1  UNL1        0.0293
     63 H           9.2921    1.2330    0.0000 H       1  UNL1        0.0268
     64 H           8.8824    1.9181    0.0000 H       1  UNL1        0.0268
     65 H           6.0298    3.4486    0.0000 H       1  UNL1        0.0596
     66 H           8.8661    3.0058    0.0000 H       1  UNL1        0.0271
     67 H           9.0340    3.8181    0.0000 H       1  UNL1        0.0271
     68 H           8.9079   -0.2908    0.0000 H       1  UNL1        0.0268
     69 H           9.3017    0.4036    0.0000 H       1  UNL1        0.0268
     70 H           5.7398    0.3522    0.0000 H       1  UNL1        0.0271
     71 H           5.3300   -0.3329    0.0000 H       1  UNL1        0.0271
     72 H           8.6790    4.6055    0.0000 H       1  UNL1        0.0269
     73 H           7.9590    5.0174    0.0000 H       1  UNL1        0.0269
     74 H           8.3243    1.8005    0.0000 H       1  UNL1        0.0235
     75 H           9.1703    2.0307    0.0000 H       1  UNL1        0.0235
     76 H           8.9401    2.8768    0.0000 H       1  UNL1        0.0235
     77 H           7.4046   -2.1739    0.0000 H       1  UNL1        0.0602
     78 H           6.3400    1.3295    0.0000 H       1  UNL1        0.0235
     79 H           5.4922    1.1058    0.0000 H       1  UNL1        0.0235
     80 H           5.7158    0.2580    0.0000 H       1  UNL1        0.0235
     81 H           5.3199   -1.2056    0.0000 H       1  UNL1        0.0290
     82 H           5.7137   -1.9000    0.0000 H       1  UNL1        0.0290
     83 H           8.8094   -1.9311    0.0000 H       1  UNL1        0.0236
     84 H           9.4246   -1.3063    0.0000 H       1  UNL1        0.0236
     85 H           8.7998   -0.6911    0.0000 H       1  UNL1        0.0236
     86 H           7.7767   -2.4951    0.0000 H       1  UNL1        0.0236
     87 H           8.6254   -2.7155    0.0000 H       1  UNL1        0.0236
     88 H           8.8458   -1.8668    0.0000 H       1  UNL1        0.0236
     89 H           4.6286    3.0132    0.0000 H       1  UNL1        0.2098
     90 H           5.2123    6.0779    0.0000 H       1  UNL1        0.0296
     91 H           5.3797    5.2987    0.0000 H       1  UNL1        0.0296
     92 H           5.2735    4.8355    0.0000 H       1  UNL1        0.0257
     93 H           5.2295    3.9598    0.0000 H       1  UNL1        0.0257
     94 H           6.1052    3.9157    0.0000 H       1  UNL1        0.0257
     95 H           7.0426    6.3232    0.0000 H       1  UNL1        0.2102
     96 H           6.6154    6.4498    0.0000 H       1  UNL1        0.0308
     97 H           6.4480    7.2291    0.0000 H       1  UNL1        0.0308
     98 H           6.0010   -2.7449    0.0000 H       1  UNL1        0.0938
     99 H           6.0010   -4.9849    0.0000 H       1  UNL1        0.0675
    100 H           4.7905    7.3513    0.0000 H       1  UNL1        0.0571
    101 H           4.5981   -5.1749    0.0000 H       1  UNL1        0.0648
    102 H           4.2690   -2.7449    0.0000 H       1  UNL1        0.0647
    103 H           3.7320   -4.0549    0.0000 H       1  UNL1        0.0647
    104 H           3.8015   -2.3899    0.0000 H       1  UNL1        0.0584
    105 H           3.0044   -2.3899    0.0000 H       1  UNL1        0.0584
    106 H           7.4040   -5.5549    0.0000 H       1  UNL1        0.0937
    107 H           4.5981   -6.1749    0.0000 H       1  UNL1        0.2100
    108 H           3.4030   -5.4849    0.0000 H       1  UNL1        0.2100
    109 H           5.4928    9.5907    0.0000 H       1  UNL1        0.0274
    110 H           4.6171    9.6348    0.0000 H       1  UNL1        0.0274
    111 H           4.5731    8.7591    0.0000 H       1  UNL1        0.0274
    112 H           6.8116    8.0370    0.0000 H       1  UNL1        0.0274
    113 H           7.2875    8.7734    0.0000 H       1  UNL1        0.0274
    114 H           6.5512    9.2493    0.0000 H       1  UNL1        0.0274
    115 H           8.2700   -6.6749    0.0000 H       1  UNL1        0.0648
    116 H           7.7331   -7.9849    0.0000 H       1  UNL1        0.0376
    117 H           2.0000   -3.0549    0.0000 H       1  UNL1        0.2095
    118 H           5.4641   -7.0549    0.0000 H       1  UNL1        0.0646
    119 H           6.3301   -8.1749    0.0000 H       1  UNL1        0.0624
    120 H           8.5991   -5.2449    0.0000 H       1  UNL1        0.2100
    121 H           9.2097   -7.9726    0.0000 H       1  UNL1        0.0561
    122 H           8.8112   -7.2823    0.0000 H       1  UNL1        0.0561
    123 H           4.7365   -8.3398    0.0000 H       1  UNL1        0.0584
    124 H           5.5335   -8.3398    0.0000 H       1  UNL1        0.0584
    125 H           6.3301   -9.1749    0.0000 H       1  UNL1        0.2099
    126 H           8.0622   -9.1749    0.0000 H       1  UNL1        0.2094
    127 H           3.7320   -7.6749    0.0000 H       1  UNL1        0.2095
@<TRIPOS>BOND
     1    23     1    1
     2     1    89    1
     3     2    30    1
     4    39     2    1
     5    33     3    1
     6     3    95    1
     7     4    39    1
     8     4    43    1
     9    40     5    1
    10    47     5    1
    11    42     6    1
    12     6   107    1
    13    44     7    1
    14     7   108    1
    15     8    47    1
    16     8    52    1
    17     9    46    1
    18     9   117    1
    19    50    10    1
    20    10   120    1
    21    53    11    1
    22    11   125    1
    23    12    54    1
    24    12   126    1
    25    13    55    1
    26    13   127    1
    27    14    15    1
    28    14    18    1
    29    14    24    1
    30    14    29    1
    31    15    16    1
    32    15    22    1
    33    15    56    1
    34    16    17    1
    35    16    21    1
    36    16    57    1
    37    17    19    1
    38    17    27    1
    39    17    31    1
    40    18    20    1
    41    18    23    1
    42    18    58    1
    43    19    25    1
    44    19    26    1
    45    19    59    1
    46    20    28    1
    47    20    33    1
    48    20    60    1
    49    21    23    1
    50    21    61    1
    51    21    62    1
    52    22    25    1
    53    22    63    1
    54    22    64    1
    55    23    65    1
    56    24    28    1
    57    24    66    1
    58    24    67    1
    59    25    68    1
    60    25    69    1
    61    26    30    1
    62    26    34    1
    63    26    35    1
    64    27    32    1
    65    27    70    1
    66    27    71    1
    67    28    72    1
    68    28    73    1
    69    29    74    1
    70    29    75    1
    71    29    76    1
    72    30    32    1
    73    30    77    1
    74    31    78    1
    75    31    79    1
    76    31    80    1
    77    32    81    1
    78    32    82    1
    79    33    36    1
    80    33    37    1
    81    34    83    1
    82    34    84    1
    83    34    85    1
    84    35    86    1
    85    35    87    1
    86    35    88    1
    87    36    38    1
    88    36    90    1
    89    36    91    1
    90    37    92    1
    91    37    93    1
    92    37    94    1
    93    38    41    1
    94    38    96    1
    95    38    97    1
    96    39    40    1
    97    39    98    1
    98    40    42    1
    99    40    99    1
   100    41    45    2
   101    41   100    1
   102    42    44    1
   103    42   101    1
   104    43    44    1
   105    43    46    1
   106    43   102    1
   107    44   103    1
   108    45    48    1
   109    45    49    1
   110    46   104    1
   111    46   105    1
   112    47    50    1
   113    47   106    1
   114    48   109    1
   115    48   110    1
   116    48   111    1
   117    49   112    1
   118    49   113    1
   119    49   114    1
   120    50    51    1
   121    50   115    1
   122    51    53    1
   123    51    54    1
   124    51   116    1
   125    52    53    1
   126    52    55    1
   127    52   118    1
   128    53   119    1
   129    54   121    1
   130    54   122    1
   131    55   123    1
   132    55   124    1
