@<TRIPOS>MOLECULE
IMPHY007386
 46 45 0 0 0
SMALL
GASTEIGER

@<TRIPOS>ATOM
      1 O           9.4651    2.3450    0.0000 O.3     1  UNL1       -0.3892
      2 O           8.5991   -0.1550    0.0000 O.3     1  UNL1       -0.3883
      3 O           2.5369   -0.6550    0.0000 O.3     1  UNL1       -0.3757
      4 C          11.1972    1.3450    0.0000 C.3     1  UNL1       -0.0506
      5 C          10.3312    0.8450    0.0000 C.3     1  UNL1       -0.0244
      6 C          12.0632    0.8450    0.0000 C.3     1  UNL1       -0.0530
      7 C           9.4651    1.3450    0.0000 C.3     1  UNL1        0.0819
      8 C          12.9292    1.3450    0.0000 C.3     1  UNL1       -0.0531
      9 C           8.5991    0.8450    0.0000 C.3     1  UNL1        0.0918
     10 C          13.7953    0.8450    0.0000 C.3     1  UNL1       -0.0533
     11 C          14.6613    1.3450    0.0000 C.3     1  UNL1       -0.0559
     12 C           7.7331    1.3450    0.0000 C.3     1  UNL1        0.0385
     13 C          15.5273    0.8450    0.0000 C.3     1  UNL1       -0.0653
     14 C           6.8671    0.8450    0.0000 C.1     1  UNL1       -0.0858
     15 C           6.0010    0.3450    0.0000 C.1     1  UNL1       -0.0147
     16 C           5.1350   -0.1550    0.0000 C.1     1  UNL1       -0.0119
     17 C           4.2690   -0.6550    0.0000 C.1     1  UNL1       -0.0529
     18 C           3.4030   -1.1550    0.0000 C.3     1  UNL1        0.1348
     19 C           3.4030   -2.1550    0.0000 C.2     1  UNL1       -0.0510
     20 C           2.5369   -2.6550    0.0000 C.2     1  UNL1       -0.0993
     21 H          11.5957    1.8200    0.0000 H       1  UNL1        0.0266
     22 H          10.7987    1.8200    0.0000 H       1  UNL1        0.0266
     23 H           9.9326    0.3701    0.0000 H       1  UNL1        0.0291
     24 H          10.7297    0.3701    0.0000 H       1  UNL1        0.0291
     25 H          11.6647    0.3701    0.0000 H       1  UNL1        0.0265
     26 H          12.4617    0.3701    0.0000 H       1  UNL1        0.0265
     27 H          10.2013    1.7700    0.0000 H       1  UNL1        0.0619
     28 H          13.3278    1.8200    0.0000 H       1  UNL1        0.0265
     29 H          12.5307    1.8200    0.0000 H       1  UNL1        0.0265
     30 H           7.8630    0.4200    0.0000 H       1  UNL1        0.0628
     31 H          13.3967    0.3701    0.0000 H       1  UNL1        0.0265
     32 H          14.1938    0.3701    0.0000 H       1  UNL1        0.0265
     33 H          15.0598    1.8200    0.0000 H       1  UNL1        0.0263
     34 H          14.2628    1.8200    0.0000 H       1  UNL1        0.0263
     35 H           8.1316    1.8200    0.0000 H       1  UNL1        0.0424
     36 H           7.3346    1.8200    0.0000 H       1  UNL1        0.0424
     37 H          10.0021    2.6550    0.0000 H       1  UNL1        0.2099
     38 H          15.2173    0.3081    0.0000 H       1  UNL1        0.0230
     39 H          16.0643    0.5350    0.0000 H       1  UNL1        0.0230
     40 H          15.8373    1.3819    0.0000 H       1  UNL1        0.0230
     41 H           8.0622   -0.4650    0.0000 H       1  UNL1        0.2099
     42 H           3.4030   -0.3050    0.0000 H       1  UNL1        0.0777
     43 H           3.9399   -2.4650    0.0000 H       1  UNL1        0.0601
     44 H           2.0000   -0.9650    0.0000 H       1  UNL1        0.2114
     45 H           2.0000   -2.3450    0.0000 H       1  UNL1        0.0533
     46 H           2.5369   -3.2750    0.0000 H       1  UNL1        0.0533
@<TRIPOS>BOND
     1     1     7    1
     2     1    37    1
     3     2     9    1
     4     2    41    1
     5     3    18    1
     6     3    44    1
     7     4     5    1
     8     4     6    1
     9     4    21    1
    10     4    22    1
    11     5     7    1
    12     5    23    1
    13     5    24    1
    14     6     8    1
    15     6    25    1
    16     6    26    1
    17     7     9    1
    18     7    27    1
    19     8    10    1
    20     8    28    1
    21     8    29    1
    22     9    12    1
    23     9    30    1
    24    10    11    1
    25    10    31    1
    26    10    32    1
    27    11    13    1
    28    11    33    1
    29    11    34    1
    30    12    14    1
    31    12    35    1
    32    12    36    1
    33    13    38    1
    34    13    39    1
    35    13    40    1
    36    14    15    3
    37    15    16    1
    38    16    17    3
    39    17    18    1
    40    18    19    1
    41    18    42    1
    42    19    20    2
    43    19    43    1
    44    20    45    1
    45    20    46    1
