@<TRIPOS>MOLECULE
IMPHY002661
 38 40 0 0 0
SMALL
GASTEIGER

@<TRIPOS>ATOM
      1 O           5.4239    1.4908    0.0000 O.3     1  UNL1       -0.4883
      2 O           8.1955    1.8735    0.0000 O.3     1  UNL1       -0.3826
      3 O           7.0456    3.2080    0.0000 O.3     1  UNL1       -0.3921
      4 O           8.7754   -2.6177    0.0000 O.3     1  UNL1       -0.5033
      5 O           6.8830   -3.4015    0.0000 O.3     1  UNL1       -0.5033
      6 O           2.3793    0.0317    0.0000 O.3     1  UNL1       -0.5066
      7 C           7.2717    1.4908    0.0000 C.3     1  UNL1        0.1266
      8 C           7.6543    0.5669    0.0000 C.3     1  UNL1        0.0074
      9 C           6.3478    1.8735    0.0000 C.3     1  UNL1        0.1207
     10 C           7.2717   -0.3569    0.0000 C.ar    1  UNL1       -0.0330
     11 C           7.6543    2.4147    0.0000 C.3     1  UNL1        0.0765
     12 C           6.3478   -0.7396    0.0000 C.ar    1  UNL1       -0.0074
     13 C           5.4239   -0.3569    0.0000 C.ar    1  UNL1        0.0244
     14 C           5.0412    0.5669    0.0000 C.ar    1  UNL1        0.1318
     15 C           8.1077   -0.9782    0.0000 C.ar    1  UNL1       -0.0127
     16 C           6.1959   -1.7701    0.0000 C.ar    1  UNL1       -0.0084
     17 C           7.9797   -2.0120    0.0000 C.ar    1  UNL1        0.1585
     18 C           4.8026   -1.1930    0.0000 C.ar    1  UNL1       -0.0471
     19 C           7.0174   -2.4106    0.0000 C.ar    1  UNL1        0.1588
     20 C           4.0107    0.7188    0.0000 C.ar    1  UNL1        0.0221
     21 C           3.7689   -1.0650    0.0000 C.ar    1  UNL1       -0.0194
     22 C           3.3703   -0.1027    0.0000 C.ar    1  UNL1        0.1204
     23 H           8.1462    0.1895    0.0000 H       1  UNL1        0.0343
     24 H           8.1462    0.9444    0.0000 H       1  UNL1        0.0343
     25 H           6.7252    2.3654    0.0000 H       1  UNL1        0.0726
     26 H           5.9704    2.3654    0.0000 H       1  UNL1        0.0726
     27 H           8.1773    2.0816    0.0000 H       1  UNL1        0.0587
     28 H           8.0732    2.8718    0.0000 H       1  UNL1        0.0587
     29 H           8.6777   -0.7344    0.0000 H       1  UNL1        0.0658
     30 H           8.6874    1.4961    0.0000 H       1  UNL1        0.2104
     31 H           5.6204   -2.0008    0.0000 H       1  UNL1        0.0661
     32 H           5.0465   -1.7630    0.0000 H       1  UNL1        0.0626
     33 H           3.7801    1.2943    0.0000 H       1  UNL1        0.0691
     34 H           7.2828    3.7808    0.0000 H       1  UNL1        0.2095
     35 H           3.3933   -1.5583    0.0000 H       1  UNL1        0.0654
     36 H           9.3473   -2.3782    0.0000 H       1  UNL1        0.2923
     37 H           7.3735   -3.7808    0.0000 H       1  UNL1        0.2923
     38 H           2.0000   -0.4587    0.0000 H       1  UNL1        0.2921
@<TRIPOS>BOND
     1     1     9    1
     2     1    14    1
     3     7     2    1
     4     2    30    1
     5     3    11    1
     6     3    34    1
     7     4    17    1
     8     4    36    1
     9     5    19    1
    10     5    37    1
    11     6    22    1
    12     6    38    1
    13     7     8    1
    14     7     9    1
    15     7    11    1
    16     8    10    1
    17     8    23    1
    18     8    24    1
    19     9    25    1
    20     9    26    1
    21    10    12   ar
    22    10    15   ar
    23    11    27    1
    24    11    28    1
    25    12    13    1
    26    12    16   ar
    27    13    14   ar
    28    13    18   ar
    29    14    20   ar
    30    15    17   ar
    31    15    29    1
    32    16    19   ar
    33    16    31    1
    34    17    19   ar
    35    18    21   ar
    36    18    32    1
    37    20    22   ar
    38    20    33    1
    39    21    22   ar
    40    21    35    1
