@<TRIPOS>MOLECULE
IMPHY003972
 52 55 0 0 0
SMALL
GASTEIGER

@<TRIPOS>ATOM
      1 O           5.1304    1.2021    0.0000 O.3     1  UNL1       -0.3369
      2 O           9.5323   -0.2704    0.0000 O.3     1  UNL1       -0.4811
      3 O           6.0022   -0.2945    0.0000 O.3     1  UNL1       -0.4606
      4 O           4.2740   -1.3012    0.0000 O.3     1  UNL1       -0.3829
      5 O           2.5381   -0.3079    0.0000 O.3     1  UNL1       -0.3864
      6 O           2.5304    1.6921    0.0000 O.3     1  UNL1       -0.3869
      7 O          11.2644    1.7296    0.0000 O.3     1  UNL1       -0.3875
      8 O           7.7839    2.7642    0.0000 O.3     1  UNL1       -0.5063
      9 O          12.1304   -2.7704    0.0000 O.3     1  UNL1       -0.5033
     10 O          13.8625   -1.7704    0.0000 O.3     1  UNL1       -0.5033
     11 C           4.2702   -0.3012    0.0000 C.3     1  UNL1        0.1454
     12 C           3.4022    0.1954    0.0000 C.3     1  UNL1        0.1148
     13 C           5.1343    0.2021    0.0000 C.3     1  UNL1        0.2305
     14 C           3.3984    1.1954    0.0000 C.3     1  UNL1        0.1070
     15 C          10.3984    1.2296    0.0000 C.3     1  UNL1        0.1004
     16 C          10.3984    0.2296    0.0000 C.3     1  UNL1        0.1513
     17 C           9.5323    1.7296    0.0000 C.3     1  UNL1        0.0092
     18 C           4.2625    1.6988    0.0000 C.3     1  UNL1        0.0802
     19 C           8.6663    1.2296    0.0000 C.ar    1  UNL1        0.0384
     20 C           8.6663    0.2296    0.0000 C.ar    1  UNL1        0.1317
     21 C          11.2644   -0.2704    0.0000 C.ar    1  UNL1       -0.0012
     22 C           6.8663    0.2088    0.0000 C.ar    1  UNL1        0.1309
     23 C           7.7724   -0.3051    0.0000 C.ar    1  UNL1        0.0224
     24 C           7.7724    1.7643    0.0000 C.ar    1  UNL1        0.1270
     25 C           6.8663    1.2504    0.0000 C.ar    1  UNL1        0.0222
     26 C          11.2644   -1.2704    0.0000 C.ar    1  UNL1       -0.0098
     27 C          12.1304    0.2296    0.0000 C.ar    1  UNL1       -0.0513
     28 C          12.1304   -1.7704    0.0000 C.ar    1  UNL1        0.1586
     29 C          12.9964   -0.2704    0.0000 C.ar    1  UNL1       -0.0162
     30 C          12.9964   -1.2704    0.0000 C.ar    1  UNL1        0.1582
     31 H           3.7344   -0.6133    0.0000 H       1  UNL1        0.0683
     32 H           2.8641    0.5034    0.0000 H       1  UNL1        0.0648
     33 H           5.1367   -0.4179    0.0000 H       1  UNL1        0.1084
     34 H           3.3960    1.8154    0.0000 H       1  UNL1        0.0643
     35 H          10.3984    1.8496    0.0000 H       1  UNL1        0.0637
     36 H          10.3984   -0.3904    0.0000 H       1  UNL1        0.0811
     37 H           9.9309    2.2046    0.0000 H       1  UNL1        0.0342
     38 H           9.1338    2.2046    0.0000 H       1  UNL1        0.0342
     39 H           4.6592    2.1752    0.0000 H       1  UNL1        0.0588
     40 H           3.8621    2.1722    0.0000 H       1  UNL1        0.0588
     41 H           7.7795   -0.9250    0.0000 H       1  UNL1        0.0691
     42 H           6.3306    1.5625    0.0000 H       1  UNL1        0.0691
     43 H           3.7383   -1.6133    0.0000 H       1  UNL1        0.2102
     44 H           2.0000    0.0000    0.0000 H       1  UNL1        0.2100
     45 H           2.5280    2.3121    0.0000 H       1  UNL1        0.2100
     46 H          11.2644    2.3496    0.0000 H       1  UNL1        0.2100
     47 H          10.7274   -1.5804    0.0000 H       1  UNL1        0.0659
     48 H          12.1304    0.8496    0.0000 H       1  UNL1        0.0623
     49 H          13.5334    0.0396    0.0000 H       1  UNL1        0.0655
     50 H           7.2506    3.0804    0.0000 H       1  UNL1        0.2921
     51 H          12.6673   -3.0804    0.0000 H       1  UNL1        0.2923
     52 H          14.3994   -1.4604    0.0000 H       1  UNL1        0.2923
@<TRIPOS>BOND
     1     1    13    1
     2     1    18    1
     3     2    16    1
     4     2    20    1
     5    13     3    1
     6     3    22    1
     7     4    11    1
     8     4    43    1
     9    12     5    1
    10     5    44    1
    11    14     6    1
    12     6    45    1
    13    15     7    1
    14     7    46    1
    15     8    24    1
    16     8    50    1
    17     9    28    1
    18     9    51    1
    19    10    30    1
    20    10    52    1
    21    11    12    1
    22    11    13    1
    23    11    31    1
    24    12    14    1
    25    12    32    1
    26    13    33    1
    27    14    18    1
    28    14    34    1
    29    15    16    1
    30    15    17    1
    31    15    35    1
    32    16    21    1
    33    16    36    1
    34    17    19    1
    35    17    37    1
    36    17    38    1
    37    18    39    1
    38    18    40    1
    39    19    20   ar
    40    19    24   ar
    41    20    23   ar
    42    21    26   ar
    43    21    27   ar
    44    22    23   ar
    45    22    25   ar
    46    23    41    1
    47    24    25   ar
    48    25    42    1
    49    26    28   ar
    50    26    47    1
    51    27    29   ar
    52    27    48    1
    53    28    30   ar
    54    29    30   ar
    55    29    49    1
