@<TRIPOS>MOLECULE
IMPHY002010
 55 56 0 0 0
SMALL
GASTEIGER

@<TRIPOS>ATOM
      1 O           5.1350   -1.0950    0.0000 O.3     1  UNL1       -0.3404
      2 O           6.8671   -1.0950    0.0000 O.3     1  UNL1       -0.3061
      3 O           5.1350   -4.0950    0.0000 O.3     1  UNL1       -0.3864
      4 O           6.8671   -3.0950    0.0000 O.3     1  UNL1       -0.3841
      5 O           3.4030   -3.0950    0.0000 O.3     1  UNL1       -0.3865
      6 O           6.0010    0.4050    0.0000 O.2     1  UNL1       -0.4666
      7 O           2.5369   -1.5950    0.0000 O.3     1  UNL1       -0.3924
      8 O           6.0010    3.4050    0.0000 O.3     1  UNL1       -0.4646
      9 O           7.7331    3.4050    0.0000 O.2     1  UNL1       -0.2452
     10 C           5.1350   -3.0950    0.0000 C.3     1  UNL1        0.1141
     11 C           4.2690   -2.5950    0.0000 C.3     1  UNL1        0.1119
     12 C           6.0010   -2.5950    0.0000 C.3     1  UNL1        0.1343
     13 C           4.2690   -1.5950    0.0000 C.3     1  UNL1        0.1130
     14 C           6.0010   -1.5950    0.0000 C.3     1  UNL1        0.1921
     15 C           7.7331    1.4050    0.0000 C.3     1  UNL1        0.0206
     16 C           6.8671   -0.0950    0.0000 C.3     1  UNL1        0.2266
     17 C           7.7331    0.4050    0.0000 C.2     1  UNL1        0.0014
     18 C           3.4030   -1.0950    0.0000 C.3     1  UNL1        0.0730
     19 C           8.5991    1.9050    0.0000 C.3     1  UNL1       -0.0422
     20 C           6.8671    1.9050    0.0000 C.2     1  UNL1        0.0780
     21 C           8.5991    2.9050    0.0000 C.3     1  UNL1       -0.0551
     22 C           6.0010    1.4050    0.0000 C.2     1  UNL1        0.0988
     23 C           8.5991   -0.0950    0.0000 C.2     1  UNL1       -0.0814
     24 C           6.8671    2.9050    0.0000 C.2     1  UNL1        0.3384
     25 C           9.4651    3.4050    0.0000 C.3     1  UNL1       -0.0652
     26 C           9.4651    0.4050    0.0000 C.3     1  UNL1       -0.0464
     27 C           6.0010    4.4050    0.0000 C.3     1  UNL1        0.0820
     28 H           5.6720   -3.4050    0.0000 H       1  UNL1        0.0648
     29 H           4.2690   -3.2150    0.0000 H       1  UNL1        0.0647
     30 H           6.5380   -2.2850    0.0000 H       1  UNL1        0.0671
     31 H           4.2690   -0.9750    0.0000 H       1  UNL1        0.0647
     32 H           6.0010   -0.9750    0.0000 H       1  UNL1        0.0939
     33 H           8.4692    0.9800    0.0000 H       1  UNL1        0.0399
     34 H           7.6032   -0.5200    0.0000 H       1  UNL1        0.1109
     35 H           3.8015   -0.6201    0.0000 H       1  UNL1        0.0584
     36 H           3.0044   -0.6201    0.0000 H       1  UNL1        0.0584
     37 H           8.8112    1.3224    0.0000 H       1  UNL1        0.0274
     38 H           9.2097    2.0127    0.0000 H       1  UNL1        0.0274
     39 H           4.5981   -4.4050    0.0000 H       1  UNL1        0.2100
     40 H           6.8671   -3.7150    0.0000 H       1  UNL1        0.2101
     41 H           3.4030   -3.7150    0.0000 H       1  UNL1        0.2100
     42 H           8.3871    3.4876    0.0000 H       1  UNL1        0.0263
     43 H           7.9885    2.7973    0.0000 H       1  UNL1        0.0263
     44 H           5.4641    1.7150    0.0000 H       1  UNL1        0.1030
     45 H           8.5991   -0.7150    0.0000 H       1  UNL1        0.0571
     46 H           2.0000   -1.2850    0.0000 H       1  UNL1        0.2095
     47 H           9.7751    2.8681    0.0000 H       1  UNL1        0.0230
     48 H          10.0021    3.7150    0.0000 H       1  UNL1        0.0230
     49 H           9.1551    3.9419    0.0000 H       1  UNL1        0.0230
     50 H           9.7751   -0.1319    0.0000 H       1  UNL1        0.0272
     51 H          10.0021    0.7150    0.0000 H       1  UNL1        0.0272
     52 H           9.1551    0.9419    0.0000 H       1  UNL1        0.0272
     53 H           6.6210    4.4050    0.0000 H       1  UNL1        0.0661
     54 H           6.0010    5.0250    0.0000 H       1  UNL1        0.0661
     55 H           5.3810    4.4050    0.0000 H       1  UNL1        0.0661
@<TRIPOS>BOND
     1     1    13    1
     2     1    14    1
     3    14     2    1
     4     2    16    1
     5    10     3    1
     6     3    39    1
     7    12     4    1
     8     4    40    1
     9    11     5    1
    10     5    41    1
    11     6    16    1
    12     6    22    1
    13     7    18    1
    14     7    46    1
    15     8    24    1
    16     8    27    1
    17     9    24    2
    18    10    11    1
    19    10    12    1
    20    10    28    1
    21    11    13    1
    22    11    29    1
    23    12    14    1
    24    12    30    1
    25    13    18    1
    26    13    31    1
    27    14    32    1
    28    15    17    1
    29    15    19    1
    30    15    20    1
    31    15    33    1
    32    16    17    1
    33    16    34    1
    34    17    23    2
    35    18    35    1
    36    18    36    1
    37    19    21    1
    38    19    37    1
    39    19    38    1
    40    20    22    2
    41    20    24    1
    42    21    25    1
    43    21    42    1
    44    21    43    1
    45    22    44    1
    46    23    26    1
    47    23    45    1
    48    25    47    1
    49    25    48    1
    50    25    49    1
    51    26    50    1
    52    26    51    1
    53    26    52    1
    54    27    53    1
    55    27    54    1
    56    27    55    1
