@<TRIPOS>MOLECULE
IMPHY007704
 38 39 0 0 0
SMALL
GASTEIGER

@<TRIPOS>ATOM
      1 O           2.6919   -2.3697    0.0000 O.2     1  UNL1       -0.2924
      2 C           2.9665    1.4032    0.0000 C.3     1  UNL1       -0.0306
      3 C           2.7095    0.4282    0.0000 C.3     1  UNL1       -0.0224
      4 C           3.6754    0.1694    0.0000 C.3     1  UNL1       -0.0159
      5 C           3.9404    1.1422    0.0000 C.3     1  UNL1       -0.0408
      6 C           2.4507   -0.5377    0.0000 C.3     1  UNL1        0.0140
      7 C           3.2233    2.3697    0.0000 C.3     1  UNL1       -0.0595
      8 C           2.0000    1.6600    0.0000 C.3     1  UNL1       -0.0595
      9 C           4.5414    0.6694    0.0000 C.2     1  UNL1       -0.0729
     10 C           5.4075    0.1694    0.0000 C.3     1  UNL1       -0.0283
     11 C           2.9507   -1.4037    0.0000 C.2     1  UNL1        0.1590
     12 C           4.5414    1.6694    0.0000 C.2     1  UNL1       -0.0992
     13 C           5.5488   -0.9037    0.0000 C.3     1  UNL1       -0.0304
     14 C           3.8167   -0.9037    0.0000 C.2     1  UNL1       -0.0120
     15 C           4.6827   -1.4037    0.0000 C.2     1  UNL1       -0.0775
     16 C           3.8167    0.0963    0.0000 C.3     1  UNL1       -0.0367
     17 H           1.8880    0.6465    0.0000 H       1  UNL1        0.0316
     18 H           3.7864   -0.6733    0.0000 H       1  UNL1        0.0349
     19 H           4.5388    0.9801    0.0000 H       1  UNL1        0.0276
     20 H           4.1017    1.7409    0.0000 H       1  UNL1        0.0276
     21 H           1.9137   -0.2277    0.0000 H       1  UNL1        0.0348
     22 H           2.0123   -0.9761    0.0000 H       1  UNL1        0.0348
     23 H           3.8225    2.2104    0.0000 H       1  UNL1        0.0235
     24 H           3.3825    2.9689    0.0000 H       1  UNL1        0.0235
     25 H           2.6241    2.5289    0.0000 H       1  UNL1        0.0235
     26 H           2.1592    2.2592    0.0000 H       1  UNL1        0.0235
     27 H           1.4008    1.8193    0.0000 H       1  UNL1        0.0235
     28 H           1.8408    1.0608    0.0000 H       1  UNL1        0.0235
     29 H           6.0251    0.1154    0.0000 H       1  UNL1        0.0313
     30 H           5.5939    0.7607    0.0000 H       1  UNL1        0.0313
     31 H           5.0784    1.9794    0.0000 H       1  UNL1        0.0534
     32 H           4.0045    1.9794    0.0000 H       1  UNL1        0.0534
     33 H           5.7860   -1.4765    0.0000 H       1  UNL1        0.0311
     34 H           6.1476   -0.7433    0.0000 H       1  UNL1        0.0311
     35 H           4.6827   -2.0237    0.0000 H       1  UNL1        0.0576
     36 H           4.4367    0.0963    0.0000 H       1  UNL1        0.0278
     37 H           3.8167    0.7163    0.0000 H       1  UNL1        0.0278
     38 H           3.1967    0.0963    0.0000 H       1  UNL1        0.0278
@<TRIPOS>BOND
     1     1    11    2
     2     2     3    1
     3     2     5    1
     4     2     7    1
     5     2     8    1
     6     3     4    1
     7     3     6    1
     8     3    17    1
     9     4     5    1
    10     4     9    1
    11     4    18    1
    12     5    19    1
    13     5    20    1
    14     6    11    1
    15     6    21    1
    16     6    22    1
    17     7    23    1
    18     7    24    1
    19     7    25    1
    20     8    26    1
    21     8    27    1
    22     8    28    1
    23     9    10    1
    24     9    12    2
    25    10    13    1
    26    10    29    1
    27    10    30    1
    28    11    14    1
    29    12    31    1
    30    12    32    1
    31    13    15    1
    32    13    33    1
    33    13    34    1
    34    14    15    2
    35    14    16    1
    36    15    35    1
    37    16    36    1
    38    16    37    1
    39    16    38    1
