@<TRIPOS>MOLECULE
IMPHY003897
 21 23 0 0 0
SMALL
GASTEIGER

@<TRIPOS>ATOM
      1 C           3.4654   -3.9842    0.0000 C.ar    1  UNL1        0.1479
      2 C           3.4654   -5.3226    0.0000 C.ar    1  UNL1        0.1078
      3 C           2.3241   -3.3409    0.0000 C.ar    1  UNL1        0.0792
      4 C           2.3241   -5.9970    0.0000 C.ar    1  UNL1        0.2046
      5 C           1.1517   -3.9842    0.0000 C.ar    1  UNL1        0.2020
      6 C           1.1517   -5.3226    0.0000 C.ar    1  UNL1        0.0843
      7 O           4.6171   -3.3409    0.0000 O.3     1  UNL1       -0.4740
      8 C           5.7584   -3.9842    0.0000 C.3     1  UNL1        0.1959
      9 C           4.6171   -5.9970    0.0000 C.2     1  UNL1        0.1831
     10 C           5.7584   -5.3226    0.0000 C.3     1  UNL1        0.1174
     11 C           6.9100   -3.3409    0.0000 C.ar    1  UNL1        0.0210
     12 C           6.9100   -2.0025    0.0000 C.ar    1  UNL1        0.0446
     13 C           8.0513   -3.9842    0.0000 C.ar    1  UNL1        0.0027
     14 C           8.0513   -1.3281    0.0000 C.ar    1  UNL1        0.2341
     15 C           9.2238   -3.3409    0.0000 C.ar    1  UNL1        0.0452
     16 C           9.2238   -2.0025    0.0000 C.ar    1  UNL1        0.2342
     17 O           8.0513    0.0000    0.0000 O.3     1  UNL1       -0.2832
     18 O          10.3754   -1.3281    0.0000 O.3     1  UNL1       -0.2831
     19 O           4.6171   -7.3251    0.0000 O.2     1  UNL1       -0.2910
     20 O           0.0000   -3.3409    0.0000 O.3     1  UNL1       -0.2864
     21 O           2.3241   -7.3251    0.0000 O.3     1  UNL1       -0.2863
@<TRIPOS>BOND
     1     1     3   ar
     2     1     7    1
     3     1     2   ar
     4     2     4   ar
     5     2     9    1
     6     3     5   ar
     7     4     6   ar
     8     4    21    1
     9     5     6   ar
    10     5    20    1
    11     7     8    1
    12     8    10    1
    13     8    11    1
    14     9    10    1
    15     9    19    2
    16    11    12   ar
    17    11    13   ar
    18    12    14   ar
    19    13    15   ar
    20    14    16   ar
    21    14    17    1
    22    15    16   ar
    23    16    18    1
