@<TRIPOS>MOLECULE
IMPHY004532
 27 27 0 0 0
SMALL
GASTEIGER

@<TRIPOS>ATOM
      1 O           3.7320    2.5950    0.0000 O.3     1  UNL1       -0.3907
      2 C           2.8660    0.0950    0.0000 C.3     1  UNL1       -0.0143
      3 C           2.0000   -0.4050    0.0000 C.3     1  UNL1       -0.0425
      4 C           3.7320   -0.4050    0.0000 C.3     1  UNL1       -0.0279
      5 C           2.0000   -1.4050    0.0000 C.3     1  UNL1       -0.0315
      6 C           2.8660   -1.9050    0.0000 C.2     1  UNL1       -0.0765
      7 C           2.8660    1.0950    0.0000 C.2     1  UNL1       -0.0482
      8 C           3.7320   -1.4050    0.0000 C.2     1  UNL1       -0.0845
      9 C           2.8660   -2.9050    0.0000 C.3     1  UNL1       -0.0438
     10 C           3.7320    1.5950    0.0000 C.3     1  UNL1        0.0653
     11 C           2.0000    1.5950    0.0000 C.2     1  UNL1       -0.0970
     12 H           3.6022    0.5200    0.0000 H       1  UNL1        0.0349
     13 H           1.7880    0.1776    0.0000 H       1  UNL1        0.0274
     14 H           1.3894   -0.5127    0.0000 H       1  UNL1        0.0274
     15 H           4.3426   -0.5127    0.0000 H       1  UNL1        0.0313
     16 H           3.9441    0.1776    0.0000 H       1  UNL1        0.0313
     17 H           1.3894   -1.2973    0.0000 H       1  UNL1        0.0310
     18 H           1.7880   -1.9876    0.0000 H       1  UNL1        0.0310
     19 H           4.2690   -1.7150    0.0000 H       1  UNL1        0.0572
     20 H           2.2460   -2.9050    0.0000 H       1  UNL1        0.0274
     21 H           2.8660   -3.5250    0.0000 H       1  UNL1        0.0274
     22 H           3.4860   -2.9050    0.0000 H       1  UNL1        0.0274
     23 H           3.9441    1.0124    0.0000 H       1  UNL1        0.0604
     24 H           4.3426    1.7027    0.0000 H       1  UNL1        0.0604
     25 H           2.0000    2.2150    0.0000 H       1  UNL1        0.0535
     26 H           1.4631    1.2850    0.0000 H       1  UNL1        0.0535
     27 H           4.2690    2.9050    0.0000 H       1  UNL1        0.2098
@<TRIPOS>BOND
     1     1    10    1
     2     1    27    1
     3     2     3    1
     4     2     4    1
     5     2     7    1
     6     2    12    1
     7     3     5    1
     8     3    13    1
     9     3    14    1
    10     4     8    1
    11     4    15    1
    12     4    16    1
    13     5     6    1
    14     5    17    1
    15     5    18    1
    16     6     8    2
    17     6     9    1
    18     7    10    1
    19     7    11    2
    20     8    19    1
    21     9    20    1
    22     9    21    1
    23     9    22    1
    24    10    23    1
    25    10    24    1
    26    11    25    1
    27    11    26    1
