@<TRIPOS>MOLECULE
IMPHY016266
 29 31 0 0 0
SMALL
GASTEIGER

@<TRIPOS>ATOM
      1 C           4.5092   -0.3804    0.0000 C.3     1  UNL1       -0.0377
      2 C           3.6730    1.0680    0.0000 C.3     1  UNL1       -0.0377
      3 C           2.8368   -0.3804    0.0000 C.3     1  UNL1       -0.0403
      4 C           2.9819   -0.8155    0.0000 C.3     1  UNL1       -0.0403
      5 C           4.5092    0.5852    0.0000 C.3     1  UNL1       -0.0382
      6 C           3.6730   -0.6831    0.0000 C.3     1  UNL1       -0.0471
      7 C           3.8876   -1.2923    0.0000 C.3     1  UNL1       -0.0471
      8 C           2.8368    0.5852    0.0000 C.3     1  UNL1       -0.0471
      9 C           2.9819    0.2298    0.0000 C.3     1  UNL1       -0.0471
     10 C           2.0000   -0.8631    0.0000 C.3     1  UNL1       -0.0473
     11 C           5.2163    1.2923    0.0000 C.3     1  UNL1       -0.0619
     12 H           5.1016   -0.5631    0.0000 H       1  UNL1        0.0304
     13 H           3.6730    1.6880    0.0000 H       1  UNL1        0.0304
     14 H           3.3444   -0.0243    0.0000 H       1  UNL1        0.0301
     15 H           2.8478   -1.4208    0.0000 H       1  UNL1        0.0301
     16 H           5.0820    0.3479    0.0000 H       1  UNL1        0.0303
     17 H           3.3030   -1.1807    0.0000 H       1  UNL1        0.0271
     18 H           4.0430   -1.1807    0.0000 H       1  UNL1        0.0271
     19 H           3.5782   -1.8296    0.0000 H       1  UNL1        0.0271
     20 H           4.4127   -1.6218    0.0000 H       1  UNL1        0.0271
     21 H           2.6247    1.1678    0.0000 H       1  UNL1        0.0271
     22 H           2.2262    0.4775    0.0000 H       1  UNL1        0.0271
     23 H           2.6383    0.7459    0.0000 H       1  UNL1        0.0271
     24 H           2.3885    0.0503    0.0000 H       1  UNL1        0.0271
     25 H           1.5188   -0.4722    0.0000 H       1  UNL1        0.0271
     26 H           1.8068   -1.4523    0.0000 H       1  UNL1        0.0271
     27 H           5.6547    0.8539    0.0000 H       1  UNL1        0.0233
     28 H           5.6547    1.7307    0.0000 H       1  UNL1        0.0233
     29 H           4.7779    1.7307    0.0000 H       1  UNL1        0.0233
@<TRIPOS>BOND
     1     1     5    1
     2     1     6    1
     3     1     7    1
     4     1    12    1
     5     2     5    1
     6     2     8    1
     7     2     9    1
     8     2    13    1
     9     3     6    1
    10     3     8    1
    11     3    10    1
    12     3    14    1
    13     4     7    1
    14     4     9    1
    15     4    10    1
    16     4    15    1
    17     5    11    1
    18     5    16    1
    19     6    17    1
    20     6    18    1
    21     7    19    1
    22     7    20    1
    23     8    21    1
    24     8    22    1
    25     9    23    1
    26     9    24    1
    27    10    25    1
    28    10    26    1
    29    11    27    1
    30    11    28    1
    31    11    29    1
