@<TRIPOS>MOLECULE
IMPHY002004
 31 32 0 0 0
SMALL
GASTEIGER

@<TRIPOS>ATOM
      1 O           5.2619   -1.2207    0.0000 O.3     1  UNL1       -0.4534
      2 O           4.9889   -2.9759    0.0000 O.2     1  UNL1       -0.2449
      3 O           7.5673    2.8481    0.0000 O.3     1  UNL1       -0.3950
      4 C           4.6783   -0.4159    0.0000 C.3     1  UNL1        0.1255
      5 C           3.7320   -0.7207    0.0000 C.2     1  UNL1       -0.0154
      6 C           4.9889    0.5346    0.0000 C.3     1  UNL1       -0.0116
      7 C           2.8660   -0.2207    0.0000 C.3     1  UNL1       -0.0238
      8 C           3.7320   -1.7207    0.0000 C.2     1  UNL1        0.0614
      9 C           5.9674    0.7408    0.0000 C.3     1  UNL1       -0.0473
     10 C           2.0000   -0.7207    0.0000 C.3     1  UNL1       -0.0306
     11 C           4.6783   -2.0254    0.0000 C.2     1  UNL1        0.3398
     12 C           6.2781    1.6913    0.0000 C.3     1  UNL1       -0.0296
     13 C           2.8660   -2.2207    0.0000 C.2     1  UNL1       -0.0516
     14 C           2.0000   -1.7207    0.0000 C.2     1  UNL1       -0.0829
     15 C           7.2566    1.8975    0.0000 C.3     1  UNL1        0.0442
     16 H           5.2908   -0.3197    0.0000 H       1  UNL1        0.0782
     17 H           4.9684    1.1542    0.0000 H       1  UNL1        0.0304
     18 H           4.3751    0.6219    0.0000 H       1  UNL1        0.0304
     19 H           3.2646    0.2543    0.0000 H       1  UNL1        0.0314
     20 H           2.4675    0.2543    0.0000 H       1  UNL1        0.0314
     21 H           5.9880    0.1211    0.0000 H       1  UNL1        0.0267
     22 H           6.5812    0.6535    0.0000 H       1  UNL1        0.0267
     23 H           1.7880   -0.1381    0.0000 H       1  UNL1        0.0310
     24 H           1.3894   -0.8283    0.0000 H       1  UNL1        0.0310
     25 H           6.2575    2.3110    0.0000 H       1  UNL1        0.0287
     26 H           5.6643    1.7787    0.0000 H       1  UNL1        0.0287
     27 H           2.8660   -2.8407    0.0000 H       1  UNL1        0.0623
     28 H           1.4631   -2.0307    0.0000 H       1  UNL1        0.0572
     29 H           7.2772    1.2779    0.0000 H       1  UNL1        0.0557
     30 H           7.8704    1.8102    0.0000 H       1  UNL1        0.0557
     31 H           8.1739    2.9759    0.0000 H       1  UNL1        0.2094
@<TRIPOS>BOND
     1     1     4    1
     2     1    11    1
     3     2    11    2
     4     3    15    1
     5     3    31    1
     6     4     5    1
     7     4     6    1
     8     4    16    1
     9     5     7    1
    10     5     8    2
    11     6     9    1
    12     6    17    1
    13     6    18    1
    14     7    10    1
    15     7    19    1
    16     7    20    1
    17     8    11    1
    18     8    13    1
    19     9    12    1
    20     9    21    1
    21     9    22    1
    22    10    14    1
    23    10    23    1
    24    10    24    1
    25    12    15    1
    26    12    25    1
    27    12    26    1
    28    13    14    2
    29    13    27    1
    30    14    28    1
    31    15    29    1
    32    15    30    1
