@<TRIPOS>MOLECULE
IMPHY015557
 41 42 0 0 0
SMALL
GASTEIGER

@<TRIPOS>ATOM
      1 O           3.0723    0.6078    0.0000 O.3     1  UNL1       -0.4604
      2 O           4.5723    1.4738    0.0000 O.2     1  UNL1       -0.2508
      3 C           5.4490   -2.1980    0.0000 C.3     1  UNL1       -0.0185
      4 C           4.3089   -1.2409    0.0000 C.3     1  UNL1        0.0060
      5 C           4.0501   -2.2068    0.0000 C.3     1  UNL1        0.0228
      6 C           3.5723   -0.2583    0.0000 C.3     1  UNL1        0.1136
      7 C           2.2756   -1.5520    0.0000 C.3     1  UNL1       -0.0278
      8 C           2.8290   -3.0725    0.0000 C.2     1  UNL1       -0.0694
      9 C           5.9490   -3.0640    0.0000 C.3     1  UNL1       -0.0588
     10 C           6.3150   -1.6980    0.0000 C.3     1  UNL1       -0.0588
     11 C           2.0000   -2.5133    0.0000 C.2     1  UNL1       -0.0842
     12 C           2.8639   -4.0719    0.0000 C.3     1  UNL1       -0.0434
     13 C           3.5723    1.4738    0.0000 C.2     1  UNL1        0.3076
     14 C           3.0723    2.3398    0.0000 C.3     1  UNL1        0.0473
     15 C           3.5723    3.2058    0.0000 C.3     1  UNL1       -0.0367
     16 C           3.0723    4.0719    0.0000 C.3     1  UNL1       -0.0622
     17 C           4.5723    3.2058    0.0000 C.3     1  UNL1       -0.0622
     18 H           4.7592   -0.8147    0.0000 H       1  UNL1        0.0345
     19 H           4.2401   -2.7970    0.0000 H       1  UNL1        0.0387
     20 H           4.0897    0.0833    0.0000 H       1  UNL1        0.0743
     21 H           2.2706   -0.9320    0.0000 H       1  UNL1        0.0311
     22 H           1.6613   -1.4682    0.0000 H       1  UNL1        0.0311
     23 H           5.4121   -3.3740    0.0000 H       1  UNL1        0.0235
     24 H           6.2590   -3.6010    0.0000 H       1  UNL1        0.0235
     25 H           6.4859   -2.7540    0.0000 H       1  UNL1        0.0235
     26 H           6.6250   -2.2349    0.0000 H       1  UNL1        0.0235
     27 H           6.8520   -1.3880    0.0000 H       1  UNL1        0.0235
     28 H           6.0050   -1.1610    0.0000 H       1  UNL1        0.0235
     29 H           1.4174   -2.7253    0.0000 H       1  UNL1        0.0572
     30 H           2.2443   -4.0935    0.0000 H       1  UNL1        0.0274
     31 H           2.8856   -4.6915    0.0000 H       1  UNL1        0.0274
     32 H           3.4836   -4.0502    0.0000 H       1  UNL1        0.0274
     33 H           2.5973    2.7383    0.0000 H       1  UNL1        0.0380
     34 H           2.5973    1.9413    0.0000 H       1  UNL1        0.0380
     35 H           3.8823    2.6689    0.0000 H       1  UNL1        0.0301
     36 H           3.6092    4.3819    0.0000 H       1  UNL1        0.0232
     37 H           2.7623    4.6088    0.0000 H       1  UNL1        0.0232
     38 H           2.5353    3.7619    0.0000 H       1  UNL1        0.0232
     39 H           4.5723    2.5858    0.0000 H       1  UNL1        0.0232
     40 H           5.1923    3.2058    0.0000 H       1  UNL1        0.0232
     41 H           4.5723    3.8258    0.0000 H       1  UNL1        0.0232
@<TRIPOS>BOND
     1     1     6    1
     2     1    13    1
     3     2    13    2
     4     3     4    1
     5     3     5    1
     6     3     9    1
     7     3    10    1
     8     4     6    1
     9     4     7    1
    10     4    18    1
    11     5     6    1
    12     5     8    1
    13     5    19    1
    14     6    20    1
    15     7    11    1
    16     7    21    1
    17     7    22    1
    18     8    11    2
    19     8    12    1
    20     9    23    1
    21     9    24    1
    22     9    25    1
    23    10    26    1
    24    10    27    1
    25    10    28    1
    26    11    29    1
    27    12    30    1
    28    12    31    1
    29    12    32    1
    30    13    14    1
    31    14    15    1
    32    14    33    1
    33    14    34    1
    34    15    16    1
    35    15    17    1
    36    15    35    1
    37    16    36    1
    38    16    37    1
    39    16    38    1
    40    17    39    1
    41    17    40    1
    42    17    41    1
