@<TRIPOS>MOLECULE
IMPHY016866
 37 37 0 0 0
SMALL
GASTEIGER

@<TRIPOS>ATOM
      1 SI          5.4641    1.3170    0.0000 Si      1  UNL1        0.0000
      2 O           4.5981    0.8170    0.0000 O.3     1  UNL1        0.0000
      3 C           2.8660   -0.1830    0.0000 C.3     1  UNL1        0.0000
      4 C           3.7320   -0.6830    0.0000 C.ar    1  UNL1        0.0000
      5 C           4.5981   -0.1830    0.0000 C.ar    1  UNL1        0.0000
      6 C           6.3301    1.8170    0.0000 C.3     1  UNL1        0.0000
      7 C           4.9641    2.1830    0.0000 C.3     1  UNL1        0.0000
      8 C           5.9641    0.4510    0.0000 C.3     1  UNL1        0.0000
      9 C           3.7320   -1.6830    0.0000 C.ar    1  UNL1        0.0000
     10 C           5.4641   -0.6830    0.0000 C.ar    1  UNL1        0.0000
     11 C           2.0000   -0.6830    0.0000 C.3     1  UNL1        0.0000
     12 C           2.8660    0.8170    0.0000 C.3     1  UNL1        0.0000
     13 C           5.4641   -1.6830    0.0000 C.ar    1  UNL1        0.0000
     14 C           4.5981   -2.1830    0.0000 C.ar    1  UNL1        0.0000
     15 C           6.3301   -2.1830    0.0000 C.3     1  UNL1        0.0000
     16 H           2.8660   -0.8030    0.0000 H       1  UNL1        0.0000
     17 H           6.6401    1.2800    0.0000 H       1  UNL1        0.0000
     18 H           6.8671    2.1270    0.0000 H       1  UNL1        0.0000
     19 H           6.0201    2.3539    0.0000 H       1  UNL1        0.0000
     20 H           5.5010    2.4930    0.0000 H       1  UNL1        0.0000
     21 H           4.6541    2.7200    0.0000 H       1  UNL1        0.0000
     22 H           4.4272    1.8730    0.0000 H       1  UNL1        0.0000
     23 H           5.4272    0.1410    0.0000 H       1  UNL1        0.0000
     24 H           6.2741   -0.0860    0.0000 H       1  UNL1        0.0000
     25 H           6.5010    0.7610    0.0000 H       1  UNL1        0.0000
     26 H           3.1951   -1.9930    0.0000 H       1  UNL1        0.0000
     27 H           6.0010   -0.3730    0.0000 H       1  UNL1        0.0000
     28 H           1.6900   -0.1461    0.0000 H       1  UNL1        0.0000
     29 H           1.4631   -0.9930    0.0000 H       1  UNL1        0.0000
     30 H           2.3100   -1.2200    0.0000 H       1  UNL1        0.0000
     31 H           3.4860    0.8170    0.0000 H       1  UNL1        0.0000
     32 H           2.8660    1.4370    0.0000 H       1  UNL1        0.0000
     33 H           2.2460    0.8170    0.0000 H       1  UNL1        0.0000
     34 H           4.5981   -2.8030    0.0000 H       1  UNL1        0.0000
     35 H           6.0201   -2.7200    0.0000 H       1  UNL1        0.0000
     36 H           6.8671   -2.4930    0.0000 H       1  UNL1        0.0000
     37 H           6.6401   -1.6461    0.0000 H       1  UNL1        0.0000
@<TRIPOS>BOND
     1     1     2    1
     2     1     6    1
     3     1     7    1
     4     1     8    1
     5     2     5    1
     6     3     4    1
     7     3    11    1
     8     3    12    1
     9     3    16    1
    10     4     5   ar
    11     4     9   ar
    12     5    10   ar
    13     6    17    1
    14     6    18    1
    15     6    19    1
    16     7    20    1
    17     7    21    1
    18     7    22    1
    19     8    23    1
    20     8    24    1
    21     8    25    1
    22     9    14   ar
    23     9    26    1
    24    10    13   ar
    25    10    27    1
    26    11    28    1
    27    11    29    1
    28    11    30    1
    29    12    31    1
    30    12    32    1
    31    12    33    1
    32    13    14   ar
    33    13    15    1
    34    14    34    1
    35    15    35    1
    36    15    36    1
    37    15    37    1
