@<TRIPOS>MOLECULE
IMPHY002873
 17 17 0 0 0
SMALL
GASTEIGER

@<TRIPOS>ATOM
      1 O           2.0000   -0.3355    0.0000 O.3     1  UNL1       -0.3659
      2 O           4.3660    1.0306    0.0000 O.3     1  UNL1       -0.3921
      3 C           2.8660    0.1645    0.0000 C.3     1  UNL1        0.1154
      4 C           2.0000    0.6645    0.0000 C.3     1  UNL1        0.0797
      5 C           3.3660   -0.7015    0.0000 C.3     1  UNL1       -0.0222
      6 C           3.3660    1.0306    0.0000 C.3     1  UNL1        0.0754
      7 C           2.8660   -1.5675    0.0000 C.3     1  UNL1       -0.0625
      8 H           2.2120    1.2472    0.0000 H       1  UNL1        0.0589
      9 H           1.3894    0.7722    0.0000 H       1  UNL1        0.0589
     10 H           3.8410   -1.1000    0.0000 H       1  UNL1        0.0292
     11 H           3.8410   -0.3030    0.0000 H       1  UNL1        0.0292
     12 H           3.4737    1.6412    0.0000 H       1  UNL1        0.0586
     13 H           2.7834    1.2426    0.0000 H       1  UNL1        0.0586
     14 H           2.3291   -1.2575    0.0000 H       1  UNL1        0.0231
     15 H           2.5560   -2.1044    0.0000 H       1  UNL1        0.0231
     16 H           3.4030   -1.8775    0.0000 H       1  UNL1        0.0231
     17 H           4.6760    1.5675    0.0000 H       1  UNL1        0.2095
@<TRIPOS>BOND
     1     1     3    1
     2     1     4    1
     3     2     6    1
     4     2    17    1
     5     3     4    1
     6     3     5    1
     7     3     6    1
     8     4     8    1
     9     4     9    1
    10     5     7    1
    11     5    10    1
    12     5    11    1
    13     6    12    1
    14     6    13    1
    15     7    14    1
    16     7    15    1
    17     7    16    1
