@<TRIPOS>MOLECULE
IMPHY004365
 50 52 0 0 0
SMALL
GASTEIGER

@<TRIPOS>ATOM
      1 O           8.6663   -1.7327    0.0000 O.3     1  UNL1       -0.4940
      2 O           6.0682   -2.2327    0.0000 O.2     1  UNL1       -0.4620
      3 O          10.3984    1.2673    0.0000 O.3     1  UNL1       -0.4946
      4 O           6.9343    1.2673    0.0000 O.3     1  UNL1       -0.5059
      5 O           6.0682    0.7673    0.0000 O.2     1  UNL1       -0.2864
      6 O           2.5381   -2.2568    0.0000 O.3     1  UNL1       -0.5066
      7 C           9.5323   -0.2327    0.0000 C.ar    1  UNL1        0.0404
      8 C           7.8003   -0.2327    0.0000 C.ar    1  UNL1        0.0722
      9 C           8.6663   -0.7327    0.0000 C.ar    1  UNL1        0.1384
     10 C          10.3984   -0.7327    0.0000 C.3     1  UNL1       -0.0023
     11 C           6.9343   -0.7327    0.0000 C.ar    1  UNL1        0.0713
     12 C           9.5323    0.7673    0.0000 C.ar    1  UNL1        0.1305
     13 C           7.8003    0.7673    0.0000 C.ar    1  UNL1        0.1317
     14 C           8.6663    1.2673    0.0000 C.ar    1  UNL1        0.0227
     15 C           6.0682   -0.2327    0.0000 C.ar    1  UNL1        0.2004
     16 C           5.2022   -0.7327    0.0000 C.ar    1  UNL1        0.0648
     17 C          11.2644   -0.2327    0.0000 C.2     1  UNL1       -0.0807
     18 C           5.2022   -1.7327    0.0000 C.ar    1  UNL1        0.1419
     19 C           6.9343   -1.7327    0.0000 C.ar    1  UNL1        0.1041
     20 C          12.1304   -0.7327    0.0000 C.2     1  UNL1       -0.0793
     21 C           4.3083   -0.1980    0.0000 C.ar    1  UNL1       -0.0439
     22 C           4.3083   -2.2673    0.0000 C.ar    1  UNL1        0.0228
     23 C           3.4022   -0.7119    0.0000 C.ar    1  UNL1       -0.0193
     24 C           3.4022   -1.7535    0.0000 C.ar    1  UNL1        0.1204
     25 C          12.9965   -0.2327    0.0000 C.3     1  UNL1       -0.0440
     26 C          12.1304   -1.7327    0.0000 C.3     1  UNL1       -0.0440
     27 C           9.5323   -2.2327    0.0000 C.3     1  UNL1        0.0788
     28 C          10.3984    2.2673    0.0000 C.3     1  UNL1        0.0788
     29 H           9.9998   -1.2076    0.0000 H       1  UNL1        0.0358
     30 H          10.7969   -1.2076    0.0000 H       1  UNL1        0.0358
     31 H           8.6663    1.8873    0.0000 H       1  UNL1        0.0691
     32 H          11.2644    0.3873    0.0000 H       1  UNL1        0.0575
     33 H           7.4712   -2.0427    0.0000 H       1  UNL1        0.1037
     34 H           4.3154    0.4220    0.0000 H       1  UNL1        0.0627
     35 H           4.3154   -2.8873    0.0000 H       1  UNL1        0.0691
     36 H           2.8665   -0.3998    0.0000 H       1  UNL1        0.0654
     37 H           6.9343    1.8873    0.0000 H       1  UNL1        0.2922
     38 H          13.3065   -0.7696    0.0000 H       1  UNL1        0.0274
     39 H          11.5104   -1.7327    0.0000 H       1  UNL1        0.0274
     40 H          12.1304   -2.3527    0.0000 H       1  UNL1        0.0274
     41 H          12.7504   -1.7327    0.0000 H       1  UNL1        0.0274
     42 H          13.5334    0.0773    0.0000 H       1  UNL1        0.0274
     43 H          12.6865    0.3043    0.0000 H       1  UNL1        0.0274
     44 H           9.2224   -2.7696    0.0000 H       1  UNL1        0.0660
     45 H          10.0693   -2.5427    0.0000 H       1  UNL1        0.0660
     46 H           9.8424   -1.6957    0.0000 H       1  UNL1        0.0660
     47 H          11.0184    2.2673    0.0000 H       1  UNL1        0.0660
     48 H          10.3984    2.8873    0.0000 H       1  UNL1        0.0660
     49 H           9.7784    2.2673    0.0000 H       1  UNL1        0.0660
     50 H           2.0000   -1.9489    0.0000 H       1  UNL1        0.2921
@<TRIPOS>BOND
     1     1     9    1
     2     1    27    1
     3     2    18   ar
     4     2    19   ar
     5     3    12    1
     6     3    28    1
     7     4    13    1
     8     4    37    1
     9     5    15    2
    10     6    24    1
    11     6    50    1
    12     7     9   ar
    13     7    10    1
    14     7    12   ar
    15     8     9   ar
    16     8    11    1
    17     8    13   ar
    18    10    17    1
    19    10    29    1
    20    10    30    1
    21    11    15   ar
    22    11    19   ar
    23    12    14   ar
    24    13    14   ar
    25    14    31    1
    26    15    16   ar
    27    16    18   ar
    28    16    21   ar
    29    17    20    2
    30    17    32    1
    31    18    22   ar
    32    19    33    1
    33    20    25    1
    34    20    26    1
    35    21    23   ar
    36    21    34    1
    37    22    24   ar
    38    22    35    1
    39    23    24   ar
    40    23    36    1
    41    25    38    1
    42    25    42    1
    43    25    43    1
    44    26    39    1
    45    26    40    1
    46    26    41    1
    47    27    44    1
    48    27    45    1
    49    27    46    1
    50    28    47    1
    51    28    48    1
    52    28    49    1
