@<TRIPOS>MOLECULE
IMPHY007088
 59 61 0 0 0
SMALL
GASTEIGER

@<TRIPOS>ATOM
      1 O          10.7404    0.8047    0.0000 O.3     1  UNL1       -0.4489
      2 O          10.7404   -0.8047    0.0000 O.3     1  UNL1       -0.4525
      3 O           8.9282    2.0000    0.0000 O.3     1  UNL1       -0.4910
      4 O           6.3301   -0.5000    0.0000 O.2     1  UNL1       -0.2917
      5 O           2.8660    0.5000    0.0000 O.3     1  UNL1       -0.4906
      6 O           2.8660    2.5000    0.0000 O.3     1  UNL1       -0.4914
      7 O           3.7320   -1.0000    0.0000 O.3     1  UNL1       -0.4770
      8 O           5.4641   -1.0000    0.0000 O.2     1  UNL1       -0.2450
      9 N           6.3301   -2.5000    0.0000 N.3     1  UNL1       -0.3080
     10 C           8.0622   -0.5000    0.0000 C.ar    1  UNL1       -0.0354
     11 C           8.0622    0.5000    0.0000 C.ar    1  UNL1        0.0088
     12 C           7.1962   -1.0000    0.0000 C.3     1  UNL1       -0.0144
     13 C           7.1962    1.0000    0.0000 C.3     1  UNL1        0.0395
     14 C           7.1962   -2.0000    0.0000 C.3     1  UNL1        0.0023
     15 C           8.9282    1.0000    0.0000 C.ar    1  UNL1        0.1691
     16 C           8.9282   -1.0000    0.0000 C.ar    1  UNL1       -0.0124
     17 C           9.7942    0.5000    0.0000 C.ar    1  UNL1        0.2078
     18 C           9.7942   -0.5000    0.0000 C.ar    1  UNL1        0.1702
     19 C           6.3301    0.5000    0.0000 C.2     1  UNL1        0.1685
     20 C          11.3241    0.0000    0.0000 C.3     1  UNL1        0.2334
     21 C           5.4641    1.0000    0.0000 C.ar    1  UNL1        0.0355
     22 C           6.3301   -3.5000    0.0000 C.3     1  UNL1       -0.0130
     23 C           5.4641   -2.0000    0.0000 C.3     1  UNL1       -0.0130
     24 C           4.5981    0.5000    0.0000 C.ar    1  UNL1        0.1144
     25 C           5.4641    2.0000    0.0000 C.ar    1  UNL1       -0.0468
     26 C           3.7320    1.0000    0.0000 C.ar    1  UNL1        0.1761
     27 C           9.7942    2.5000    0.0000 C.3     1  UNL1        0.0790
     28 C           3.7320    2.0000    0.0000 C.ar    1  UNL1        0.1623
     29 C           4.5981    2.5000    0.0000 C.ar    1  UNL1       -0.0156
     30 C           4.5981   -0.5000    0.0000 C.2     1  UNL1        0.3412
     31 C           2.0000    1.0000    0.0000 C.3     1  UNL1        0.0790
     32 C           2.8660    3.5000    0.0000 C.3     1  UNL1        0.0790
     33 H           6.9841   -0.4174    0.0000 H       1  UNL1        0.0326
     34 H           6.5856   -1.1077    0.0000 H       1  UNL1        0.0326
     35 H           7.5947    1.4750    0.0000 H       1  UNL1        0.0395
     36 H           6.7976    1.4750    0.0000 H       1  UNL1        0.0395
     37 H           7.4082   -2.5826    0.0000 H       1  UNL1        0.0429
     38 H           7.8067   -1.8923    0.0000 H       1  UNL1        0.0429
     39 H           8.9282   -1.6200    0.0000 H       1  UNL1        0.0658
     40 H          11.7849   -0.4147    0.0000 H       1  UNL1        0.1166
     41 H          11.7849    0.4147    0.0000 H       1  UNL1        0.1166
     42 H           5.7101   -3.5000    0.0000 H       1  UNL1        0.0391
     43 H           5.7741   -1.4631    0.0000 H       1  UNL1        0.0391
     44 H           4.9272   -1.6900    0.0000 H       1  UNL1        0.0391
     45 H           5.1541   -2.5369    0.0000 H       1  UNL1        0.0391
     46 H           6.3301   -4.1200    0.0000 H       1  UNL1        0.0391
     47 H           6.9501   -3.5000    0.0000 H       1  UNL1        0.0391
     48 H           6.0010    2.3100    0.0000 H       1  UNL1        0.0626
     49 H          10.1042    1.9631    0.0000 H       1  UNL1        0.0660
     50 H          10.3312    2.8100    0.0000 H       1  UNL1        0.0660
     51 H           9.4842    3.0369    0.0000 H       1  UNL1        0.0660
     52 H           4.5981    3.1200    0.0000 H       1  UNL1        0.0655
     53 H           2.3100    1.5369    0.0000 H       1  UNL1        0.0660
     54 H           1.4631    1.3100    0.0000 H       1  UNL1        0.0660
     55 H           1.6900    0.4631    0.0000 H       1  UNL1        0.0660
     56 H           3.7320   -1.6200    0.0000 H       1  UNL1        0.2954
     57 H           3.4860    3.5000    0.0000 H       1  UNL1        0.0660
     58 H           2.8660    4.1200    0.0000 H       1  UNL1        0.0660
     59 H           2.2460    3.5000    0.0000 H       1  UNL1        0.0660
@<TRIPOS>BOND
     1     1    17    1
     2     1    20    1
     3     2    18    1
     4     2    20    1
     5     3    15    1
     6     3    27    1
     7     4    19    2
     8     5    26    1
     9     5    31    1
    10     6    28    1
    11     6    32    1
    12     7    30    1
    13     7    56    1
    14     8    30    2
    15     9    14    1
    16     9    22    1
    17     9    23    1
    18    10    11   ar
    19    10    12    1
    20    10    16   ar
    21    11    13    1
    22    11    15   ar
    23    12    14    1
    24    12    33    1
    25    12    34    1
    26    13    19    1
    27    13    35    1
    28    13    36    1
    29    14    37    1
    30    14    38    1
    31    15    17   ar
    32    16    18   ar
    33    16    39    1
    34    17    18   ar
    35    19    21    1
    36    20    40    1
    37    20    41    1
    38    21    24   ar
    39    21    25   ar
    40    22    42    1
    41    22    46    1
    42    22    47    1
    43    23    43    1
    44    23    44    1
    45    23    45    1
    46    24    26   ar
    47    24    30    1
    48    25    29   ar
    49    25    48    1
    50    26    28   ar
    51    27    49    1
    52    27    50    1
    53    27    51    1
    54    28    29   ar
    55    29    52    1
    56    31    53    1
    57    31    54    1
    58    31    55    1
    59    32    57    1
    60    32    58    1
    61    32    59    1
