@<TRIPOS>MOLECULE
IMPHY016188
 24 25 0 0 0
SMALL
GASTEIGER

@<TRIPOS>ATOM
      1 C           4.1881    0.3267    0.0000 C.ar    1  UNL1       -0.0147
      2 C           4.1931   -0.6733    0.0000 C.ar    1  UNL1       -0.0147
      3 C           5.1408   -0.9733    0.0000 C.ar    1  UNL1       -0.0427
      4 C           3.4032    0.9463    0.0000 C.ar    1  UNL1       -0.0427
      5 C           5.1328    0.6361    0.0000 C.ar    1  UNL1       -0.0535
      6 C           5.7204   -0.1657    0.0000 C.ar    1  UNL1       -0.0577
      7 C           3.4144   -1.3007    0.0000 C.ar    1  UNL1       -0.0538
      8 C           5.4562   -1.9223    0.0000 C.3     1  UNL1       -0.0391
      9 C           2.4294    0.7189    0.0000 C.ar    1  UNL1       -0.0583
     10 C           3.6208    1.9223    0.0000 C.3     1  UNL1       -0.0391
     11 C           2.4384   -1.0830    0.0000 C.ar    1  UNL1       -0.0612
     12 C           2.0000   -0.1842    0.0000 C.ar    1  UNL1       -0.0615
     13 H           5.3225    1.2264    0.0000 H       1  UNL1        0.0624
     14 H           6.3404   -0.1626    0.0000 H       1  UNL1        0.0621
     15 H           3.5554   -1.9044    0.0000 H       1  UNL1        0.0624
     16 H           4.8679   -2.1178    0.0000 H       1  UNL1        0.0278
     17 H           5.6518   -2.5106    0.0000 H       1  UNL1        0.0278
     18 H           6.0446   -1.7267    0.0000 H       1  UNL1        0.0278
     19 H           2.0404    1.2017    0.0000 H       1  UNL1        0.0620
     20 H           4.2260    1.7873    0.0000 H       1  UNL1        0.0278
     21 H           3.7558    2.5274    0.0000 H       1  UNL1        0.0278
     22 H           3.0157    2.0572    0.0000 H       1  UNL1        0.0278
     23 H           2.0542   -1.5697    0.0000 H       1  UNL1        0.0618
     24 H           1.3800   -0.1873    0.0000 H       1  UNL1        0.0618
@<TRIPOS>BOND
     1     1     2    1
     2     1     4   ar
     3     1     5   ar
     4     2     3   ar
     5     2     7   ar
     6     3     6   ar
     7     3     8    1
     8     4     9   ar
     9     4    10    1
    10     5     6   ar
    11     5    13    1
    12     6    14    1
    13     7    11   ar
    14     7    15    1
    15     8    16    1
    16     8    17    1
    17     8    18    1
    18     9    12   ar
    19     9    19    1
    20    10    20    1
    21    10    21    1
    22    10    22    1
    23    11    12   ar
    24    11    23    1
    25    12    24    1
