@<TRIPOS>MOLECULE
IMPHY001097
 52 52 0 0 0
SMALL
GASTEIGER

@<TRIPOS>ATOM
      1 O          14.8660    3.7141    0.0000 O.3     1  UNL1       -0.4806
      2 O          14.8660    1.9820    0.0000 O.2     1  UNL1       -0.2510
      3 C           8.0000   -0.2500    0.0000 C.2     1  UNL1       -0.0660
      4 C           8.8660    0.2500    0.0000 C.2     1  UNL1       -0.0660
      5 C           8.0000    0.7500    0.0000 C.3     1  UNL1       -0.0100
      6 C           7.5000   -1.1160    0.0000 C.3     1  UNL1       -0.0312
      7 C           9.8660    0.2500    0.0000 C.3     1  UNL1       -0.0312
      8 C           6.5000   -1.1160    0.0000 C.3     1  UNL1       -0.0493
      9 C          10.3660    1.1160    0.0000 C.3     1  UNL1       -0.0493
     10 C           6.0000   -1.9820    0.0000 C.3     1  UNL1       -0.0528
     11 C          11.3660    1.1160    0.0000 C.3     1  UNL1       -0.0528
     12 C           5.0000   -1.9820    0.0000 C.3     1  UNL1       -0.0530
     13 C          11.8660    1.9820    0.0000 C.3     1  UNL1       -0.0525
     14 C           4.5000   -2.8481    0.0000 C.3     1  UNL1       -0.0531
     15 C           3.5000   -2.8481    0.0000 C.3     1  UNL1       -0.0533
     16 C          12.8660    1.9820    0.0000 C.3     1  UNL1       -0.0430
     17 C           3.0000   -3.7141    0.0000 C.3     1  UNL1       -0.0559
     18 C          13.3660    2.8481    0.0000 C.3     1  UNL1        0.0448
     19 C           2.0000   -3.7141    0.0000 C.3     1  UNL1       -0.0653
     20 C          14.3660    2.8481    0.0000 C.2     1  UNL1        0.3047
     21 H           8.2120    1.3326    0.0000 H       1  UNL1        0.0355
     22 H           7.3894    0.8577    0.0000 H       1  UNL1        0.0355
     23 H           7.3923   -1.7266    0.0000 H       1  UNL1        0.0310
     24 H           8.0826   -1.3281    0.0000 H       1  UNL1        0.0310
     25 H           9.7584   -0.3606    0.0000 H       1  UNL1        0.0310
     26 H          10.4486    0.0379    0.0000 H       1  UNL1        0.0310
     27 H           6.6077   -0.5054    0.0000 H       1  UNL1        0.0268
     28 H           5.9174   -0.9040    0.0000 H       1  UNL1        0.0268
     29 H          10.4737    1.7266    0.0000 H       1  UNL1        0.0268
     30 H           9.7834    1.3281    0.0000 H       1  UNL1        0.0268
     31 H           5.8923   -2.5926    0.0000 H       1  UNL1        0.0265
     32 H           6.5826   -2.1941    0.0000 H       1  UNL1        0.0265
     33 H          11.2584    0.5054    0.0000 H       1  UNL1        0.0265
     34 H          11.9486    0.9040    0.0000 H       1  UNL1        0.0265
     35 H           5.1077   -1.3715    0.0000 H       1  UNL1        0.0265
     36 H           4.4174   -1.7700    0.0000 H       1  UNL1        0.0265
     37 H          11.9737    2.5926    0.0000 H       1  UNL1        0.0265
     38 H          11.2834    2.1941    0.0000 H       1  UNL1        0.0265
     39 H           4.3923   -3.4587    0.0000 H       1  UNL1        0.0265
     40 H           5.0826   -3.0601    0.0000 H       1  UNL1        0.0265
     41 H           3.6077   -2.2375    0.0000 H       1  UNL1        0.0265
     42 H           2.9174   -2.6360    0.0000 H       1  UNL1        0.0265
     43 H          12.7584    1.3715    0.0000 H       1  UNL1        0.0270
     44 H          13.4486    1.7700    0.0000 H       1  UNL1        0.0270
     45 H           2.8923   -4.3247    0.0000 H       1  UNL1        0.0263
     46 H           3.5826   -3.9262    0.0000 H       1  UNL1        0.0263
     47 H          13.4737    3.4587    0.0000 H       1  UNL1        0.0377
     48 H          12.7834    3.0601    0.0000 H       1  UNL1        0.0377
     49 H           2.0000   -3.0941    0.0000 H       1  UNL1        0.0230
     50 H           1.3800   -3.7141    0.0000 H       1  UNL1        0.0230
     51 H           2.0000   -4.3341    0.0000 H       1  UNL1        0.0230
     52 H          15.4860    3.7141    0.0000 H       1  UNL1        0.2951
@<TRIPOS>BOND
     1     1    20    1
     2     1    52    1
     3     2    20    2
     4     3     4    2
     5     3     5    1
     6     3     6    1
     7     4     5    1
     8     4     7    1
     9     5    21    1
    10     5    22    1
    11     6     8    1
    12     6    23    1
    13     6    24    1
    14     7     9    1
    15     7    25    1
    16     7    26    1
    17     8    10    1
    18     8    27    1
    19     8    28    1
    20     9    11    1
    21     9    29    1
    22     9    30    1
    23    10    12    1
    24    10    31    1
    25    10    32    1
    26    11    13    1
    27    11    33    1
    28    11    34    1
    29    12    14    1
    30    12    35    1
    31    12    36    1
    32    13    16    1
    33    13    37    1
    34    13    38    1
    35    14    15    1
    36    14    39    1
    37    14    40    1
    38    15    17    1
    39    15    41    1
    40    15    42    1
    41    16    18    1
    42    16    43    1
    43    16    44    1
    44    17    19    1
    45    17    45    1
    46    17    46    1
    47    18    20    1
    48    18    47    1
    49    18    48    1
    50    19    49    1
    51    19    50    1
    52    19    51    1
