@<TRIPOS>MOLECULE
IMPHY003072
 34 35 0 0 0
SMALL
GASTEIGER

@<TRIPOS>ATOM
      1 O           4.2690    0.3038    0.0000 O.3     1  UNL1       -0.3405
      2 O           6.0010    0.3038    0.0000 O.3     1  UNL1       -0.3440
      3 O           4.2690   -2.6962    0.0000 O.3     1  UNL1       -0.3864
      4 O           2.5369   -1.6962    0.0000 O.3     1  UNL1       -0.3865
      5 O           6.0010   -1.6962    0.0000 O.3     1  UNL1       -0.3841
      6 O           2.5369    1.3038    0.0000 O.3     1  UNL1       -0.3924
      7 O           7.9497    3.0062    0.0000 O.2     1  UNL1       -0.4707
      8 C           4.2690   -1.6962    0.0000 C.3     1  UNL1        0.1141
      9 C           3.4030   -1.1962    0.0000 C.3     1  UNL1        0.1119
     10 C           5.1350   -1.1962    0.0000 C.3     1  UNL1        0.1341
     11 C           3.4030   -0.1962    0.0000 C.3     1  UNL1        0.1130
     12 C           5.1350   -0.1962    0.0000 C.3     1  UNL1        0.1883
     13 C           2.5369    0.3038    0.0000 C.3     1  UNL1        0.0730
     14 C           6.0010    1.3038    0.0000 C.3     1  UNL1        0.0787
     15 C           6.8671    1.8038    0.0000 C.ar    1  UNL1        0.0158
     16 C           7.7806    1.3970    0.0000 C.ar    1  UNL1       -0.0185
     17 C           6.9716    2.7983    0.0000 C.ar    1  UNL1        0.0970
     18 C           8.4497    2.1402    0.0000 C.ar    1  UNL1        0.0920
     19 H           4.8059   -2.0062    0.0000 H       1  UNL1        0.0648
     20 H           3.4030   -1.8162    0.0000 H       1  UNL1        0.0647
     21 H           5.6720   -0.8862    0.0000 H       1  UNL1        0.0671
     22 H           3.4030    0.4238    0.0000 H       1  UNL1        0.0647
     23 H           5.1350    0.4238    0.0000 H       1  UNL1        0.0938
     24 H           1.9264    0.4114    0.0000 H       1  UNL1        0.0584
     25 H           2.3249   -0.2788    0.0000 H       1  UNL1        0.0584
     26 H           3.7320   -3.0062    0.0000 H       1  UNL1        0.2100
     27 H           2.0000   -1.3862    0.0000 H       1  UNL1        0.2100
     28 H           6.5380   -1.3862    0.0000 H       1  UNL1        0.2101
     29 H           5.7890    1.8864    0.0000 H       1  UNL1        0.0612
     30 H           5.3905    1.1961    0.0000 H       1  UNL1        0.0612
     31 H           2.0000    1.6138    0.0000 H       1  UNL1        0.2095
     32 H           7.9095    0.7906    0.0000 H       1  UNL1        0.0652
     33 H           6.5108    3.2132    0.0000 H       1  UNL1        0.1033
     34 H           9.0663    2.0754    0.0000 H       1  UNL1        0.1029
@<TRIPOS>BOND
     1     1    11    1
     2     1    12    1
     3    12     2    1
     4     2    14    1
     5     8     3    1
     6     3    26    1
     7     9     4    1
     8     4    27    1
     9    10     5    1
    10     5    28    1
    11     6    13    1
    12     6    31    1
    13     7    17   ar
    14     7    18   ar
    15     8     9    1
    16     8    10    1
    17     8    19    1
    18     9    11    1
    19     9    20    1
    20    10    12    1
    21    10    21    1
    22    11    13    1
    23    11    22    1
    24    12    23    1
    25    13    24    1
    26    13    25    1
    27    14    15    1
    28    14    29    1
    29    14    30    1
    30    15    16   ar
    31    15    17   ar
    32    16    18   ar
    33    16    32    1
    34    17    33    1
    35    18    34    1
