@<TRIPOS>MOLECULE
IMPHY011862
 88 87 0 0 0
SMALL
GASTEIGER

@<TRIPOS>ATOM
      1 O           6.3301   -0.7500    0.0000 O.2     1  UNL1       -0.2974
      2 C          15.8564    0.7500    0.0000 C.3     1  UNL1       -0.0531
      3 C          16.7224    0.2500    0.0000 C.3     1  UNL1       -0.0531
      4 C          14.9904    0.2500    0.0000 C.3     1  UNL1       -0.0531
      5 C          17.5885    0.7500    0.0000 C.3     1  UNL1       -0.0531
      6 C          14.1244    0.7500    0.0000 C.3     1  UNL1       -0.0531
      7 C          18.4545    0.2500    0.0000 C.3     1  UNL1       -0.0531
      8 C          13.2583    0.2500    0.0000 C.3     1  UNL1       -0.0531
      9 C          19.3205    0.7500    0.0000 C.3     1  UNL1       -0.0531
     10 C          12.3923    0.7500    0.0000 C.3     1  UNL1       -0.0531
     11 C          20.1865    0.2500    0.0000 C.3     1  UNL1       -0.0531
     12 C          11.5263    0.2500    0.0000 C.3     1  UNL1       -0.0531
     13 C          21.0526    0.7500    0.0000 C.3     1  UNL1       -0.0531
     14 C          10.6603    0.7500    0.0000 C.3     1  UNL1       -0.0531
     15 C          21.9186    0.2500    0.0000 C.3     1  UNL1       -0.0531
     16 C           9.7942    0.2500    0.0000 C.3     1  UNL1       -0.0530
     17 C          22.7846    0.7500    0.0000 C.3     1  UNL1       -0.0531
     18 C           8.9282    0.7500    0.0000 C.3     1  UNL1       -0.0527
     19 C          23.6506    0.2500    0.0000 C.3     1  UNL1       -0.0531
     20 C           8.0622    0.2500    0.0000 C.3     1  UNL1       -0.0464
     21 C          24.5167    0.7500    0.0000 C.3     1  UNL1       -0.0533
     22 C           7.1962    0.7500    0.0000 C.3     1  UNL1        0.0058
     23 C          25.3827    0.2500    0.0000 C.3     1  UNL1       -0.0559
     24 C           6.3301    0.2500    0.0000 C.2     1  UNL1        0.1334
     25 C           5.4641    0.7500    0.0000 C.3     1  UNL1        0.0058
     26 C           4.5981    0.2500    0.0000 C.3     1  UNL1       -0.0464
     27 C           3.7320    0.7500    0.0000 C.3     1  UNL1       -0.0529
     28 C          26.2487    0.7500    0.0000 C.3     1  UNL1       -0.0653
     29 C           2.8660    0.2500    0.0000 C.3     1  UNL1       -0.0559
     30 C           2.0000    0.7500    0.0000 C.3     1  UNL1       -0.0653
     31 H          16.2549    1.2250    0.0000 H       1  UNL1        0.0265
     32 H          15.4579    1.2250    0.0000 H       1  UNL1        0.0265
     33 H          16.3239   -0.2249    0.0000 H       1  UNL1        0.0265
     34 H          17.1210   -0.2249    0.0000 H       1  UNL1        0.0265
     35 H          14.5919   -0.2249    0.0000 H       1  UNL1        0.0265
     36 H          15.3889   -0.2249    0.0000 H       1  UNL1        0.0265
     37 H          17.9870    1.2250    0.0000 H       1  UNL1        0.0265
     38 H          17.1899    1.2250    0.0000 H       1  UNL1        0.0265
     39 H          14.5229    1.2250    0.0000 H       1  UNL1        0.0265
     40 H          13.7258    1.2250    0.0000 H       1  UNL1        0.0265
     41 H          18.0560   -0.2249    0.0000 H       1  UNL1        0.0265
     42 H          18.8530   -0.2249    0.0000 H       1  UNL1        0.0265
     43 H          12.8598   -0.2249    0.0000 H       1  UNL1        0.0265
     44 H          13.6569   -0.2249    0.0000 H       1  UNL1        0.0265
     45 H          19.7190    1.2250    0.0000 H       1  UNL1        0.0265
     46 H          18.9220    1.2250    0.0000 H       1  UNL1        0.0265
     47 H          12.7908    1.2250    0.0000 H       1  UNL1        0.0265
     48 H          11.9938    1.2250    0.0000 H       1  UNL1        0.0265
     49 H          19.7880   -0.2249    0.0000 H       1  UNL1        0.0265
     50 H          20.5851   -0.2249    0.0000 H       1  UNL1        0.0265
     51 H          11.1278   -0.2249    0.0000 H       1  UNL1        0.0265
     52 H          11.9248   -0.2249    0.0000 H       1  UNL1        0.0265
     53 H          21.4511    1.2250    0.0000 H       1  UNL1        0.0265
     54 H          20.6540    1.2250    0.0000 H       1  UNL1        0.0265
     55 H          11.0588    1.2250    0.0000 H       1  UNL1        0.0265
     56 H          10.2617    1.2250    0.0000 H       1  UNL1        0.0265
     57 H          21.5201   -0.2249    0.0000 H       1  UNL1        0.0265
     58 H          22.3171   -0.2249    0.0000 H       1  UNL1        0.0265
     59 H           9.3957   -0.2249    0.0000 H       1  UNL1        0.0265
     60 H          10.1928   -0.2249    0.0000 H       1  UNL1        0.0265
     61 H          23.1831    1.2250    0.0000 H       1  UNL1        0.0265
     62 H          22.3861    1.2250    0.0000 H       1  UNL1        0.0265
     63 H           9.3267    1.2250    0.0000 H       1  UNL1        0.0265
     64 H           8.5297    1.2250    0.0000 H       1  UNL1        0.0265
     65 H          23.2521   -0.2249    0.0000 H       1  UNL1        0.0265
     66 H          24.0492   -0.2249    0.0000 H       1  UNL1        0.0265
     67 H           7.6636   -0.2249    0.0000 H       1  UNL1        0.0269
     68 H           8.4607   -0.2249    0.0000 H       1  UNL1        0.0269
     69 H          24.9152    1.2250    0.0000 H       1  UNL1        0.0265
     70 H          24.1181    1.2250    0.0000 H       1  UNL1        0.0265
     71 H           7.5947    1.2250    0.0000 H       1  UNL1        0.0342
     72 H           6.7976    1.2250    0.0000 H       1  UNL1        0.0342
     73 H          24.9842   -0.2249    0.0000 H       1  UNL1        0.0263
     74 H          25.7812   -0.2249    0.0000 H       1  UNL1        0.0263
     75 H           5.8626    1.2250    0.0000 H       1  UNL1        0.0342
     76 H           5.0656    1.2250    0.0000 H       1  UNL1        0.0342
     77 H           4.1996   -0.2249    0.0000 H       1  UNL1        0.0269
     78 H           4.9966   -0.2249    0.0000 H       1  UNL1        0.0269
     79 H           4.1306    1.2250    0.0000 H       1  UNL1        0.0265
     80 H           3.3335    1.2250    0.0000 H       1  UNL1        0.0265
     81 H          26.5587    0.2131    0.0000 H       1  UNL1        0.0230
     82 H          26.7856    1.0600    0.0000 H       1  UNL1        0.0230
     83 H          25.9387    1.2869    0.0000 H       1  UNL1        0.0230
     84 H           2.4675   -0.2249    0.0000 H       1  UNL1        0.0263
     85 H           3.2646   -0.2249    0.0000 H       1  UNL1        0.0263
     86 H           2.3100    1.2869    0.0000 H       1  UNL1        0.0230
     87 H           1.4631    1.0600    0.0000 H       1  UNL1        0.0230
     88 H           1.6900    0.2131    0.0000 H       1  UNL1        0.0230
@<TRIPOS>BOND
     1     1    24    2
     2     2     3    1
     3     2     4    1
     4     2    31    1
     5     2    32    1
     6     3     5    1
     7     3    33    1
     8     3    34    1
     9     4     6    1
    10     4    35    1
    11     4    36    1
    12     5     7    1
    13     5    37    1
    14     5    38    1
    15     6     8    1
    16     6    39    1
    17     6    40    1
    18     7     9    1
    19     7    41    1
    20     7    42    1
    21     8    10    1
    22     8    43    1
    23     8    44    1
    24     9    11    1
    25     9    45    1
    26     9    46    1
    27    10    12    1
    28    10    47    1
    29    10    48    1
    30    11    13    1
    31    11    49    1
    32    11    50    1
    33    12    14    1
    34    12    51    1
    35    12    52    1
    36    13    15    1
    37    13    53    1
    38    13    54    1
    39    14    16    1
    40    14    55    1
    41    14    56    1
    42    15    17    1
    43    15    57    1
    44    15    58    1
    45    16    18    1
    46    16    59    1
    47    16    60    1
    48    17    19    1
    49    17    61    1
    50    17    62    1
    51    18    20    1
    52    18    63    1
    53    18    64    1
    54    19    21    1
    55    19    65    1
    56    19    66    1
    57    20    22    1
    58    20    67    1
    59    20    68    1
    60    21    23    1
    61    21    69    1
    62    21    70    1
    63    22    24    1
    64    22    71    1
    65    22    72    1
    66    23    28    1
    67    23    73    1
    68    23    74    1
    69    24    25    1
    70    25    26    1
    71    25    75    1
    72    25    76    1
    73    26    27    1
    74    26    77    1
    75    26    78    1
    76    27    29    1
    77    27    79    1
    78    27    80    1
    79    28    81    1
    80    28    82    1
    81    28    83    1
    82    29    30    1
    83    29    84    1
    84    29    85    1
    85    30    86    1
    86    30    87    1
    87    30    88    1
