@<TRIPOS>MOLECULE
IMPHY014230
 31 29 0 0 0
SMALL
GASTEIGER

@<TRIPOS>ATOM
      1 S           2.7020    0.8660    0.0000 S.O2    1  UNL1        0.2051
      2 O           2.2690    6.3520    0.0000 O.2     2  UNL2       -0.3248
      3 O           4.8671    8.8520    0.0000 O.3     2  UNL2       -0.4795
      4 OXT         4.0010   10.3521    0.0000 O.2     2  UNL2       -0.2493
      5 O           3.5680    1.3660    0.0000 O.3     1  UNL1       -0.2312
      6 O           1.8360    0.3660    0.0000 O.3     1  UNL1       -0.2312
      7 O           2.2020    1.7320    0.0000 O.2     1  UNL1       -0.1183
      8 O           3.2020    0.0000    0.0000 O.2     1  UNL1       -0.1183
      9 N           2.2690    9.3520    0.0000 N.3     2  UNL2       -0.3183
     10 N           1.4030    5.8520    0.0000 N.pl3   2  UNL2        0.1157
     11 N           0.5369    4.3520    0.0000 N.pl3   2  UNL2       -0.2863
     12 N           2.2690    4.3520    0.0000 N.pl3   2  UNL2       -0.2863
     13 C           3.1350    7.8520    0.0000 C.3     2  UNL2        0.0111
     14 CA          3.1350    8.8520    0.0000 C.3     2  UNL2        0.1065
     15 C           2.2690    7.3520    0.0000 C.3     2  UNL2        0.1378
     16 C           4.0010    9.3520    0.0000 C.2     2  UNL2        0.3218
     17 C           1.4030    4.8520    0.0000 C.cat   2  UNL2        0.4202
     18 H           3.3471    7.2694    0.0000 H       2  UNL2        0.0320
     19 H           3.7456    7.9597    0.0000 H       2  UNL2        0.0320
     20 HA          2.5981    8.5420    0.0000 H       2  UNL2        0.0575
     21 H           2.0569    7.9347    0.0000 H       2  UNL2        0.0741
     22 H           1.6584    7.2444    0.0000 H       2  UNL2        0.0741
     23 H1          1.7320    9.0420    0.0000 H       2  UNL2        0.1190
     24 H2          2.2690    9.9720    0.0000 H       2  UNL2        0.1190
     25 H           5.4040    9.1620    0.0000 H       2  UNL2        0.2951
     26 H           0.5369    3.7320    0.0000 H       2  UNL2        0.2548
     27 H           0.0000    4.6620    0.0000 H       2  UNL2        0.2548
     28 H           2.2690    3.7320    0.0000 H       2  UNL2        0.2548
     29 H           2.8059    4.6620    0.0000 H       2  UNL2        0.2548
     30 H           4.1050    1.0560    0.0000 H       1  UNL1        0.2469
     31 H           1.2990    0.6760    0.0000 H       1  UNL1        0.2469
@<TRIPOS>BOND
     1     1     5    1
     2     1     6    1
     3     1     7    2
     4     1     8    2
     5     2    10    1
     6     2    15    1
     7     3    16    1
     8     3    25    1
     9     4    16    2
    10     5    30    1
    11     6    31    1
    12    14     9    1
    13     9    23    1
    14     9    24    1
    15    10    17    2
    16    11    17    1
    17    11    26    1
    18    11    27    1
    19    12    17    1
    20    12    28    1
    21    12    29    1
    22    13    14    1
    23    13    15    1
    24    13    18    1
    25    13    19    1
    26    14    16    1
    27    14    20    1
    28    15    21    1
    29    15    22    1
