@<TRIPOS>MOLECULE
IMPHY000736
 211 222 0 0 0
SMALL
GASTEIGER

@<TRIPOS>ATOM
      1 O           6.8671   -2.8147    0.0000 O.3     1  UNL1       -0.3449
      2 O           8.6209    6.4648    0.0000 O.3     1  UNL1       -0.4318
      3 O           9.5042    4.9749    0.0000 O.2     1  UNL1       -0.2501
      4 O           5.1350   -2.8147    0.0000 O.3     1  UNL1       -0.3405
      5 O           6.8671   -4.8147    0.0000 O.3     1  UNL1       -0.3378
      6 O           9.4695    7.9747    0.0000 O.3     1  UNL1       -0.3368
      7 O           5.1350   -5.8147    0.0000 O.3     1  UNL1       -0.3864
      8 O          10.3644    5.4849    0.0000 O.3     1  UNL1       -0.3366
      9 O           3.4030   -4.8147    0.0000 O.3     1  UNL1       -0.3865
     10 O          12.0847    6.5048    0.0000 O.3     1  UNL1       -0.3864
     11 O           6.0010   -6.3147    0.0000 O.3     1  UNL1       -0.3405
     12 O           2.5369   -3.3147    0.0000 O.3     1  UNL1       -0.3924
     13 O          12.0616    8.5047    0.0000 O.3     1  UNL1       -0.3869
     14 O           8.5991   -5.8147    0.0000 O.3     1  UNL1       -0.3841
     15 O          12.0963    5.5049    0.0000 O.3     1  UNL1       -0.3431
     16 O           8.5991   -7.8147    0.0000 O.3     1  UNL1       -0.3864
     17 O           6.8671   -8.8147    0.0000 O.3     1  UNL1       -0.3865
     18 O          10.3875    3.4850    0.0000 O.3     1  UNL1       -0.3841
     19 O          12.1310    2.5051    0.0000 O.3     1  UNL1       -0.3401
     20 O          13.8514    3.5251    0.0000 O.3     1  UNL1       -0.3402
     21 O           5.1350   -8.8147    0.0000 O.3     1  UNL1       -0.3924
     22 O          13.8629    2.5251    0.0000 O.3     1  UNL1       -0.3461
     23 O          14.7000    5.0350    0.0000 O.3     1  UNL1       -0.3461
     24 O          12.1541    0.5052    0.0000 O.3     1  UNL1       -0.3841
     25 O          15.5949    2.5452    0.0000 O.3     1  UNL1       -0.3841
     26 O          13.8976   -0.4747    0.0000 O.3     1  UNL1       -0.3864
     27 O          17.3152    3.5651    0.0000 O.3     1  UNL1       -0.3401
     28 O          15.6180    0.5453    0.0000 O.3     1  UNL1       -0.3869
     29 O          17.2921    5.5650    0.0000 O.3     1  UNL1       -0.3868
     30 O          19.0472    3.5852    0.0000 O.3     1  UNL1       -0.3461
     31 O          17.2921    5.5650    0.0000 O.3     1  UNL1       -0.3841
     32 O          19.0125    6.5850    0.0000 O.3     1  UNL1       -0.3864
     33 O          20.7560    5.6050    0.0000 O.3     1  UNL1       -0.3869
     34 C           7.7681    1.8856    0.0000 C.3     1  UNL1       -0.0194
     35 C           6.9040    1.3822    0.0000 C.3     1  UNL1       -0.0257
     36 C           6.8920    0.3407    0.0000 C.3     1  UNL1       -0.0250
     37 C           7.7643    2.8856    0.0000 C.3     1  UNL1       -0.0051
     38 C           7.7920   -0.1836    0.0000 C.3     1  UNL1       -0.0278
     39 C           8.6801    1.3822    0.0000 C.3     1  UNL1       -0.0463
     40 C           7.8046   -1.2685    0.0000 C.3     1  UNL1       -0.0052
     41 C           8.6921    0.3407    0.0000 C.3     1  UNL1       -0.0486
     42 C           6.8963    3.3822    0.0000 C.2     1  UNL1       -0.0629
     43 C           6.8762    4.4236    0.0000 C.3     1  UNL1       -0.0031
     44 C           6.0361    1.8789    0.0000 C.3     1  UNL1       -0.0306
     45 C           5.9421   -0.1836    0.0000 C.3     1  UNL1       -0.0447
     46 C           8.6723    3.3959    0.0000 C.3     1  UNL1       -0.0424
     47 C           7.7722    4.9549    0.0000 C.3     1  UNL1        0.0744
     48 C           8.7522    2.0630    0.0000 C.3     1  UNL1       -0.0585
     49 C           6.8671   -1.8147    0.0000 C.3     1  UNL1        0.0672
     50 C           8.6763    4.4375    0.0000 C.3     1  UNL1       -0.0359
     51 C           6.0279    0.8440    0.0000 C.3     1  UNL1       -0.0590
     52 C           5.9295   -1.2685    0.0000 C.3     1  UNL1       -0.0255
     53 C           6.0322    2.8789    0.0000 C.2     1  UNL1       -0.0836
     54 C           8.7497    2.7157    0.0000 C.3     1  UNL1       -0.0553
     55 C           5.9223    4.9406    0.0000 C.3     1  UNL1       -0.0403
     56 C           7.7764    6.0399    0.0000 C.3     1  UNL1       -0.0362
     57 C           5.9014    6.0254    0.0000 C.3     1  UNL1       -0.0343
     58 C           8.8046   -1.2608    0.0000 C.3     1  UNL1       -0.0572
     59 C           8.3113   -2.1307    0.0000 C.3     1  UNL1       -0.0572
     60 C           6.8347    6.5787    0.0000 C.3     1  UNL1       -0.0468
     61 C           8.6324    5.4648    0.0000 C.2     1  UNL1        0.3161
     62 C           5.3881    6.8836    0.0000 C.3     1  UNL1       -0.0598
     63 C           4.9015    6.0100    0.0000 C.3     1  UNL1       -0.0598
     64 C           6.0010   -3.3147    0.0000 C.3     1  UNL1        0.1886
     65 C           6.0010   -4.3147    0.0000 C.3     1  UNL1        0.1406
     66 C           9.4810    6.9748    0.0000 C.3     1  UNL1        0.2338
     67 C           5.1350   -4.8147    0.0000 C.3     1  UNL1        0.1144
     68 C           4.2690   -3.3147    0.0000 C.3     1  UNL1        0.1130
     69 C           4.2690   -4.3147    0.0000 C.3     1  UNL1        0.1119
     70 C          10.3528    6.4848    0.0000 C.3     1  UNL1        0.1520
     71 C          11.2130    6.9948    0.0000 C.3     1  UNL1        0.1152
     72 C           3.4030   -2.8147    0.0000 C.3     1  UNL1        0.0730
     73 C           6.8671   -5.8147    0.0000 C.3     1  UNL1        0.1885
     74 C          10.3297    8.4847    0.0000 C.3     1  UNL1        0.0802
     75 C          11.2014    7.9947    0.0000 C.3     1  UNL1        0.1070
     76 C           7.7331   -6.3147    0.0000 C.3     1  UNL1        0.1341
     77 C          11.2361    4.9949    0.0000 C.3     1  UNL1        0.1885
     78 C           7.7331   -7.3147    0.0000 C.3     1  UNL1        0.1141
     79 C           6.0010   -7.3147    0.0000 C.3     1  UNL1        0.1130
     80 C           6.8671   -7.8147    0.0000 C.3     1  UNL1        0.1119
     81 C          11.2477    3.9950    0.0000 C.3     1  UNL1        0.1345
     82 C          12.1194    3.5050    0.0000 C.3     1  UNL1        0.1208
     83 C          12.9681    5.0150    0.0000 C.3     1  UNL1        0.0877
     84 C           5.1350   -7.8147    0.0000 C.3     1  UNL1        0.0730
     85 C          12.9796    4.0150    0.0000 C.3     1  UNL1        0.1164
     86 C          13.8282    5.5249    0.0000 C.3     1  UNL1       -0.0360
     87 C          13.0027    2.0152    0.0000 C.3     1  UNL1        0.1880
     88 C          14.7115    4.0350    0.0000 C.3     1  UNL1        0.1880
     89 C          13.0143    1.0152    0.0000 C.3     1  UNL1        0.1341
     90 C          15.5833    3.5451    0.0000 C.3     1  UNL1        0.1345
     91 C          13.8861    0.5253    0.0000 C.3     1  UNL1        0.1137
     92 C          16.4435    4.0551    0.0000 C.3     1  UNL1        0.1202
     93 C          14.7347    2.0352    0.0000 C.3     1  UNL1        0.0792
     94 C          14.7462    1.0352    0.0000 C.3     1  UNL1        0.1069
     95 C          15.5602    5.5450    0.0000 C.3     1  UNL1        0.0792
     96 C          16.4319    5.0550    0.0000 C.3     1  UNL1        0.1073
     97 C          18.1754    4.0751    0.0000 C.3     1  UNL1        0.1880
     98 C          18.1639    5.0750    0.0000 C.3     1  UNL1        0.1341
     99 C          19.0240    5.5850    0.0000 C.3     1  UNL1        0.1137
    100 C          19.9074    4.0951    0.0000 C.3     1  UNL1        0.0792
    101 C          19.8958    5.0951    0.0000 C.3     1  UNL1        0.1069
    102 H           7.4398    1.0702    0.0000 H       1  UNL1        0.0315
    103 H           8.3314   -0.4895    0.0000 H       1  UNL1        0.0312
    104 H           9.2921    1.2832    0.0000 H       1  UNL1        0.0271
    105 H           8.8824    1.9683    0.0000 H       1  UNL1        0.0271
    106 H           8.9079   -0.2406    0.0000 H       1  UNL1        0.0268
    107 H           9.3017    0.4538    0.0000 H       1  UNL1        0.0268
    108 H           6.3466    4.1013    0.0000 H       1  UNL1        0.0357
    109 H           5.4251    1.9842    0.0000 H       1  UNL1        0.0310
    110 H           5.8263    1.2955    0.0000 H       1  UNL1        0.0310
    111 H           5.7398    0.4024    0.0000 H       1  UNL1        0.0271
    112 H           5.3300   -0.2826    0.0000 H       1  UNL1        0.0271
    113 H           8.8791    2.8114    0.0000 H       1  UNL1        0.0274
    114 H           9.2836    3.4996    0.0000 H       1  UNL1        0.0274
    115 H           8.8623    1.4528    0.0000 H       1  UNL1        0.0235
    116 H           9.3624    2.1730    0.0000 H       1  UNL1        0.0235
    117 H           8.6422    2.6732    0.0000 H       1  UNL1        0.0235
    118 H           7.4046   -2.1236    0.0000 H       1  UNL1        0.0602
    119 H           9.2868    4.3291    0.0000 H       1  UNL1        0.0276
    120 H           8.8876    5.0204    0.0000 H       1  UNL1        0.0276
    121 H           6.3400    1.3797    0.0000 H       1  UNL1        0.0235
    122 H           5.4922    1.1561    0.0000 H       1  UNL1        0.0235
    123 H           5.7158    0.3083    0.0000 H       1  UNL1        0.0235
    124 H           5.3199   -1.1554    0.0000 H       1  UNL1        0.0290
    125 H           5.7137   -1.8498    0.0000 H       1  UNL1        0.0290
    126 H           5.4941    3.1868    0.0000 H       1  UNL1        0.0572
    127 H           8.6444    2.1047    0.0000 H       1  UNL1        0.0238
    128 H           9.3607    2.6104    0.0000 H       1  UNL1        0.0238
    129 H           8.8550    3.3267    0.0000 H       1  UNL1        0.0238
    130 H           5.3095    5.0349    0.0000 H       1  UNL1        0.0276
    131 H           5.7246    4.3530    0.0000 H       1  UNL1        0.0276
    132 H           8.3869    5.9314    0.0000 H       1  UNL1        0.0276
    133 H           7.9877    6.6227    0.0000 H       1  UNL1        0.0276
    134 H           7.7767   -2.4448    0.0000 H       1  UNL1        0.0236
    135 H           8.6254   -2.6652    0.0000 H       1  UNL1        0.0236
    136 H           8.8458   -1.8166    0.0000 H       1  UNL1        0.0236
    137 H           8.8094   -1.8808    0.0000 H       1  UNL1        0.0236
    138 H           9.4246   -1.2561    0.0000 H       1  UNL1        0.0236
    139 H           8.7998   -0.6409    0.0000 H       1  UNL1        0.0236
    140 H           7.2302    7.0562    0.0000 H       1  UNL1        0.0271
    141 H           6.4319    7.0501    0.0000 H       1  UNL1        0.0271
    142 H           5.9202    7.2018    0.0000 H       1  UNL1        0.0235
    143 H           5.0699    7.4157    0.0000 H       1  UNL1        0.0235
    144 H           4.8560    6.5654    0.0000 H       1  UNL1        0.0235
    145 H           4.8920    6.6299    0.0000 H       1  UNL1        0.0235
    146 H           4.2816    6.0004    0.0000 H       1  UNL1        0.0235
    147 H           4.9111    5.3900    0.0000 H       1  UNL1        0.0235
    148 H           6.5380   -3.6247    0.0000 H       1  UNL1        0.0938
    149 H           6.0010   -4.9347    0.0000 H       1  UNL1        0.0675
    150 H           9.4882    6.3548    0.0000 H       1  UNL1        0.1085
    151 H           4.5981   -5.1247    0.0000 H       1  UNL1        0.0648
    152 H           4.2690   -2.6947    0.0000 H       1  UNL1        0.0647
    153 H           3.7320   -4.0047    0.0000 H       1  UNL1        0.0647
    154 H          10.8933    6.1810    0.0000 H       1  UNL1        0.0687
    155 H          11.7463    7.3110    0.0000 H       1  UNL1        0.0648
    156 H           3.8015   -2.3397    0.0000 H       1  UNL1        0.0584
    157 H           3.0044   -2.3397    0.0000 H       1  UNL1        0.0584
    158 H           7.4040   -5.5047    0.0000 H       1  UNL1        0.0938
    159 H          10.7227    8.9642    0.0000 H       1  UNL1        0.0588
    160 H           9.9257    8.9550    0.0000 H       1  UNL1        0.0588
    161 H          11.1943    8.6147    0.0000 H       1  UNL1        0.0643
    162 H           4.5981   -6.1247    0.0000 H       1  UNL1        0.2100
    163 H           3.4030   -5.4347    0.0000 H       1  UNL1        0.2100
    164 H           8.2700   -6.6247    0.0000 H       1  UNL1        0.0671
    165 H          11.2289    5.6149    0.0000 H       1  UNL1        0.0938
    166 H          12.6181    6.8210    0.0000 H       1  UNL1        0.2100
    167 H           2.0000   -3.0047    0.0000 H       1  UNL1        0.2095
    168 H           7.7331   -7.9347    0.0000 H       1  UNL1        0.0648
    169 H          12.0544    9.1247    0.0000 H       1  UNL1        0.2100
    170 H           5.4641   -7.0047    0.0000 H       1  UNL1        0.0647
    171 H           6.3301   -8.1247    0.0000 H       1  UNL1        0.0647
    172 H          10.7072    4.2988    0.0000 H       1  UNL1        0.0671
    173 H           8.5991   -5.1947    0.0000 H       1  UNL1        0.2101
    174 H          11.5861    3.1888    0.0000 H       1  UNL1        0.0651
    175 H          12.9609    5.6349    0.0000 H       1  UNL1        0.0621
    176 H           4.9230   -7.2320    0.0000 H       1  UNL1        0.0584
    177 H           4.5244   -7.9223    0.0000 H       1  UNL1        0.0584
    178 H          13.5129    4.3312    0.0000 H       1  UNL1        0.0650
    179 H           9.1360   -7.5047    0.0000 H       1  UNL1        0.2100
    180 H           7.4040   -9.1247    0.0000 H       1  UNL1        0.2100
    181 H          10.3947    2.8650    0.0000 H       1  UNL1        0.2101
    182 H          14.1444    4.9916    0.0000 H       1  UNL1        0.0255
    183 H          14.3616    5.8411    0.0000 H       1  UNL1        0.0255
    184 H          13.5120    6.0582    0.0000 H       1  UNL1        0.0255
    185 H           5.6720   -9.1247    0.0000 H       1  UNL1        0.2095
    186 H          12.4694    1.6990    0.0000 H       1  UNL1        0.0937
    187 H          14.7187    3.4151    0.0000 H       1  UNL1        0.0937
    188 H          13.0215    0.3953    0.0000 H       1  UNL1        0.0671
    189 H          16.1238    3.2413    0.0000 H       1  UNL1        0.0671
    190 H          14.4265    0.2215    0.0000 H       1  UNL1        0.0647
    191 H          16.9768    4.3713    0.0000 H       1  UNL1        0.0651
    192 H          15.3465    1.9346    0.0000 H       1  UNL1        0.0587
    193 H          14.9400    2.6202    0.0000 H       1  UNL1        0.0587
    194 H          15.2796    1.3514    0.0000 H       1  UNL1        0.0643
    195 H          15.9532    6.0245    0.0000 H       1  UNL1        0.0587
    196 H          15.1562    6.0153    0.0000 H       1  UNL1        0.0587
    197 H          16.4248    5.6750    0.0000 H       1  UNL1        0.0643
    198 H          12.1613   -0.1147    0.0000 H       1  UNL1        0.2101
    199 H          16.1353    2.2414    0.0000 H       1  UNL1        0.2101
    200 H          14.4381   -0.7784    0.0000 H       1  UNL1        0.2100
    201 H          15.6252   -0.0747    0.0000 H       1  UNL1        0.2100
    202 H          17.2849    6.1849    0.0000 H       1  UNL1        0.2100
    203 H          18.1826    3.4551    0.0000 H       1  UNL1        0.0937
    204 H          17.6305    4.7588    0.0000 H       1  UNL1        0.0671
    205 H          18.4836    5.8888    0.0000 H       1  UNL1        0.0647
    206 H          20.1261    3.5150    0.0000 H       1  UNL1        0.0587
    207 H          20.5166    4.2098    0.0000 H       1  UNL1        0.0587
    208 H          19.8886    5.7150    0.0000 H       1  UNL1        0.0643
    209 H          17.2849    6.1849    0.0000 H       1  UNL1        0.2101
    210 H          19.5458    6.9011    0.0000 H       1  UNL1        0.2100
    211 H          21.2965    5.3013    0.0000 H       1  UNL1        0.2100
@<TRIPOS>BOND
     1     1    49    1
     2     1    64    1
     3     2    61    1
     4     2    66    1
     5     3    61    2
     6     4    64    1
     7     4    68    1
     8     5    65    1
     9     5    73    1
    10     6    66    1
    11     6    74    1
    12     7    67    1
    13     7   162    1
    14     8    70    1
    15     8    77    1
    16     9    69    1
    17     9   163    1
    18    10    71    1
    19    10   166    1
    20    11    73    1
    21    11    79    1
    22    12    72    1
    23    12   167    1
    24    13    75    1
    25    13   169    1
    26    14    76    1
    27    14   173    1
    28    15    77    1
    29    15    83    1
    30    16    78    1
    31    16   179    1
    32    17    80    1
    33    17   180    1
    34    18    81    1
    35    18   181    1
    36    19    82    1
    37    19    87    1
    38    20    85    1
    39    20    88    1
    40    21    84    1
    41    21   185    1
    42    22    87    1
    43    22    93    1
    44    23    88    1
    45    23    95    1
    46    24    89    1
    47    24   198    1
    48    25    90    1
    49    25   199    1
    50    26    91    1
    51    26   200    1
    52    27    92    1
    53    27    97    1
    54    28    94    1
    55    28   201    1
    56    29    96    1
    57    29   202    1
    58    30    97    1
    59    30   100    1
    60    31    98    1
    61    31   209    1
    62    32    99    1
    63    32   210    1
    64    33   101    1
    65    33   211    1
    66    34    35    1
    67    34    37    1
    68    34    39    1
    69    34    48    1
    70    35    36    1
    71    35    44    1
    72    35   102    1
    73    36    38    1
    74    36    45    1
    75    36    51    1
    76    37    42    1
    77    37    46    1
    78    37    54    1
    79    38    40    1
    80    38    41    1
    81    38   103    1
    82    39    41    1
    83    39   104    1
    84    39   105    1
    85    40    49    1
    86    40    58    1
    87    40    59    1
    88    41   106    1
    89    41   107    1
    90    42    43    1
    91    42    53    2
    92    43    47    1
    93    43    55    1
    94    43   108    1
    95    44    53    1
    96    44   109    1
    97    44   110    1
    98    45    52    1
    99    45   111    1
   100    45   112    1
   101    46    50    1
   102    46   113    1
   103    46   114    1
   104    47    50    1
   105    47    56    1
   106    47    61    1
   107    48   115    1
   108    48   116    1
   109    48   117    1
   110    49    52    1
   111    49   118    1
   112    50   119    1
   113    50   120    1
   114    51   121    1
   115    51   122    1
   116    51   123    1
   117    52   124    1
   118    52   125    1
   119    53   126    1
   120    54   127    1
   121    54   128    1
   122    54   129    1
   123    55    57    1
   124    55   130    1
   125    55   131    1
   126    56    60    1
   127    56   132    1
   128    56   133    1
   129    57    60    1
   130    57    62    1
   131    57    63    1
   132    58   137    1
   133    58   138    1
   134    58   139    1
   135    59   134    1
   136    59   135    1
   137    59   136    1
   138    60   140    1
   139    60   141    1
   140    62   142    1
   141    62   143    1
   142    62   144    1
   143    63   145    1
   144    63   146    1
   145    63   147    1
   146    64    65    1
   147    64   148    1
   148    65    67    1
   149    65   149    1
   150    66    70    1
   151    66   150    1
   152    67    69    1
   153    67   151    1
   154    68    69    1
   155    68    72    1
   156    68   152    1
   157    69   153    1
   158    70    71    1
   159    70   154    1
   160    71    75    1
   161    71   155    1
   162    72   156    1
   163    72   157    1
   164    73    76    1
   165    73   158    1
   166    74    75    1
   167    74   159    1
   168    74   160    1
   169    75   161    1
   170    76    78    1
   171    76   164    1
   172    77    81    1
   173    77   165    1
   174    78    80    1
   175    78   168    1
   176    79    80    1
   177    79    84    1
   178    79   170    1
   179    80   171    1
   180    81    82    1
   181    81   172    1
   182    82    85    1
   183    82   174    1
   184    83    85    1
   185    83    86    1
   186    83   175    1
   187    84   176    1
   188    84   177    1
   189    85   178    1
   190    86   182    1
   191    86   183    1
   192    86   184    1
   193    87    89    1
   194    87   186    1
   195    88    90    1
   196    88   187    1
   197    89    91    1
   198    89   188    1
   199    90    92    1
   200    90   189    1
   201    91    94    1
   202    91   190    1
   203    92    96    1
   204    92   191    1
   205    93    94    1
   206    93   192    1
   207    93   193    1
   208    94   194    1
   209    95    96    1
   210    95   195    1
   211    95   196    1
   212    96   197    1
   213    97    98    1
   214    97   203    1
   215    98    99    1
   216    98   204    1
   217    99   101    1
   218    99   205    1
   219   100   101    1
   220   100   206    1
   221   100   207    1
   222   101   208    1
