@<TRIPOS>MOLECULE
IMPHY003185
 57 59 0 0 0
SMALL
GASTEIGER

@<TRIPOS>ATOM
      1 O           5.3788   -2.2731    0.0000 O.3     1  UNL1       -0.4907
      2 O           7.0622   -3.4400    0.0000 O.3     1  UNL1       -0.4885
      3 O           8.9077   -2.5513    0.0000 O.3     1  UNL1       -0.4913
      4 O           7.0052    3.0308    0.0000 O.2     1  UNL1       -0.2759
      5 O           2.2948   -0.5920    0.0000 O.3     1  UNL1       -0.4913
      6 O           2.7031    1.2084    0.0000 O.2     1  UNL1       -0.2840
      7 N           5.4447    2.2793    0.0000 N.am    1  UNL1       -0.2977
      8 C           5.8786    1.3783    0.0000 C.3     1  UNL1        0.0518
      9 C           6.8786    1.3783    0.0000 C.3     1  UNL1       -0.0261
     10 C           7.5021    0.5965    0.0000 C.3     1  UNL1       -0.0249
     11 C           5.2551    0.5965    0.0000 C.ar    1  UNL1       -0.0155
     12 C           7.2796   -0.3784    0.0000 C.ar    1  UNL1       -0.0324
     13 C           5.4776   -0.3784    0.0000 C.ar    1  UNL1       -0.0088
     14 C           6.3786   -0.8123    0.0000 C.ar    1  UNL1        0.0312
     15 C           6.2847   -1.8497    0.0000 C.ar    1  UNL1        0.1731
     16 C           8.1491   -0.9519    0.0000 C.ar    1  UNL1       -0.0123
     17 C           4.3686    1.0161    0.0000 C.ar    1  UNL1       -0.0057
     18 C           4.8610   -1.1411    0.0000 C.ar    1  UNL1       -0.0500
     19 C           4.4475    2.3540    0.0000 C.3     1  UNL1        0.0038
     20 C           7.1408   -2.4431    0.0000 C.ar    1  UNL1        0.2041
     21 C           8.0793   -1.9912    0.0000 C.ar    1  UNL1        0.1655
     22 C           6.0080    3.1055    0.0000 C.2     1  UNL1        0.2127
     23 C           3.4866    0.5870    0.0000 C.ar    1  UNL1        0.2206
     24 C           3.8802   -1.1372    0.0000 C.ar    1  UNL1       -0.0155
     25 C           3.2697   -0.3695    0.0000 C.ar    1  UNL1        0.1665
     26 C           5.5741    4.0065    0.0000 C.3     1  UNL1        0.0124
     27 C           5.2926   -3.2694    0.0000 C.3     1  UNL1        0.0790
     28 C           7.8863   -4.0065    0.0000 C.3     1  UNL1        0.0791
     29 C           9.8070   -2.1139    0.0000 C.3     1  UNL1        0.0790
     30 C           2.0000   -1.5476    0.0000 C.3     1  UNL1        0.0790
     31 H           6.2084    1.9033    0.0000 H       1  UNL1        0.0550
     32 H           7.4372    1.6473    0.0000 H       1  UNL1        0.0290
     33 H           6.7406    1.9828    0.0000 H       1  UNL1        0.0290
     34 H           8.0607    0.3275    0.0000 H       1  UNL1        0.0314
     35 H           7.8886    1.0812    0.0000 H       1  UNL1        0.0314
     36 H           8.7046   -0.6764    0.0000 H       1  UNL1        0.0658
     37 H           4.3652    1.6361    0.0000 H       1  UNL1        0.0660
     38 H           5.1270   -1.7012    0.0000 H       1  UNL1        0.0625
     39 H           4.4938    2.9723    0.0000 H       1  UNL1        0.0429
     40 H           3.8292    2.4004    0.0000 H       1  UNL1        0.0429
     41 H           4.4012    1.7358    0.0000 H       1  UNL1        0.0429
     42 H           3.6097   -1.6950    0.0000 H       1  UNL1        0.0655
     43 H           6.1327    4.2755    0.0000 H       1  UNL1        0.0323
     44 H           5.3051    4.5651    0.0000 H       1  UNL1        0.0323
     45 H           5.0155    3.7375    0.0000 H       1  UNL1        0.0323
     46 H           4.6749   -3.2159    0.0000 H       1  UNL1        0.0660
     47 H           5.2391   -3.8871    0.0000 H       1  UNL1        0.0660
     48 H           5.9102   -3.3229    0.0000 H       1  UNL1        0.0660
     49 H           7.5351   -4.5174    0.0000 H       1  UNL1        0.0660
     50 H           8.3972   -4.3577    0.0000 H       1  UNL1        0.0660
     51 H           8.2375   -3.4956    0.0000 H       1  UNL1        0.0660
     52 H          10.0781   -2.6715    0.0000 H       1  UNL1        0.0660
     53 H          10.3646   -1.8428    0.0000 H       1  UNL1        0.0660
     54 H           9.5358   -1.5564    0.0000 H       1  UNL1        0.0660
     55 H           1.4075   -1.3649    0.0000 H       1  UNL1        0.0660
     56 H           1.8172   -2.1401    0.0000 H       1  UNL1        0.0660
     57 H           2.5925   -1.7304    0.0000 H       1  UNL1        0.0660
@<TRIPOS>BOND
     1     1    15    1
     2     1    27    1
     3     2    20    1
     4     2    28    1
     5     3    21    1
     6     3    29    1
     7     4    22    2
     8     5    25    1
     9     5    30    1
    10     6    23    2
    11     8     7    1
    12     7    19    1
    13     7    22   am
    14     8     9    1
    15     8    11    1
    16     8    31    1
    17     9    10    1
    18     9    32    1
    19     9    33    1
    20    10    12    1
    21    10    34    1
    22    10    35    1
    23    11    13   ar
    24    11    17   ar
    25    12    14   ar
    26    12    16   ar
    27    13    14    1
    28    13    18   ar
    29    14    15   ar
    30    15    20   ar
    31    16    21   ar
    32    16    36    1
    33    17    23   ar
    34    17    37    1
    35    18    24   ar
    36    18    38    1
    37    19    39    1
    38    19    40    1
    39    19    41    1
    40    20    21   ar
    41    22    26    1
    42    23    25   ar
    43    24    25   ar
    44    24    42    1
    45    26    43    1
    46    26    44    1
    47    26    45    1
    48    27    46    1
    49    27    47    1
    50    27    48    1
    51    28    49    1
    52    28    50    1
    53    28    51    1
    54    29    52    1
    55    29    53    1
    56    29    54    1
    57    30    55    1
    58    30    56    1
    59    30    57    1
