@<TRIPOS>MOLECULE
IMPHY009072
 23 23 0 0 0
SMALL
GASTEIGER

@<TRIPOS>ATOM
      1 O           2.8660   -3.1550    0.0000 O.3     1  UNL1       -0.5068
      2 O           2.8660    2.8450    0.0000 O.2     1  UNL1       -0.2760
      3 N           4.5981    2.8450    0.0000 N.am    1  UNL1       -0.3293
      4 C           2.8660    0.8450    0.0000 C.3     1  UNL1       -0.0194
      5 C           2.8660   -0.1550    0.0000 C.ar    1  UNL1       -0.0467
      6 C           3.7320    1.3450    0.0000 C.3     1  UNL1        0.0277
      7 C           2.0000   -0.6550    0.0000 C.ar    1  UNL1       -0.0551
      8 C           3.7320   -0.6550    0.0000 C.ar    1  UNL1       -0.0551
      9 C           2.0000   -1.6550    0.0000 C.ar    1  UNL1       -0.0199
     10 C           3.7320   -1.6550    0.0000 C.ar    1  UNL1       -0.0199
     11 C           3.7320    2.3450    0.0000 C.2     1  UNL1        0.2108
     12 C           2.8660   -2.1550    0.0000 C.ar    1  UNL1        0.1169
     13 H           2.6540    1.4276    0.0000 H       1  UNL1        0.0318
     14 H           2.2554    0.7373    0.0000 H       1  UNL1        0.0318
     15 H           3.9441    0.7624    0.0000 H       1  UNL1        0.0361
     16 H           4.3426    1.4527    0.0000 H       1  UNL1        0.0361
     17 H           1.4631   -0.3450    0.0000 H       1  UNL1        0.0621
     18 H           4.2690   -0.3450    0.0000 H       1  UNL1        0.0621
     19 H           1.4631   -1.9650    0.0000 H       1  UNL1        0.0654
     20 H           4.2690   -1.9650    0.0000 H       1  UNL1        0.0654
     21 H           4.5981    3.4650    0.0000 H       1  UNL1        0.1449
     22 H           5.1350    2.5350    0.0000 H       1  UNL1        0.1449
     23 H           2.3291   -3.4650    0.0000 H       1  UNL1        0.2921
@<TRIPOS>BOND
     1     1    12    1
     2     1    23    1
     3     2    11    2
     4     3    11   am
     5     3    21    1
     6     3    22    1
     7     4     5    1
     8     4     6    1
     9     4    13    1
    10     4    14    1
    11     5     7   ar
    12     5     8   ar
    13     6    11    1
    14     6    15    1
    15     6    16    1
    16     7     9   ar
    17     7    17    1
    18     8    10   ar
    19     8    18    1
    20     9    12   ar
    21     9    19    1
    22    10    12   ar
    23    10    20    1
