@<TRIPOS>MOLECULE
IMPHY011159
 81 86 0 0 0
SMALL
GASTEIGER

@<TRIPOS>ATOM
      1 O           5.2362    1.9637    0.0000 O.3     1  UNL1       -0.4563
      2 O          12.4162   -1.3067    0.0000 O.3     1  UNL1       -0.4559
      3 O           8.4491    3.1714    0.0000 O.2     1  UNL1       -0.2960
      4 O           6.9860   -1.9811    0.0000 O.3     1  UNL1       -0.3803
      5 O           5.2039   -2.8891    0.0000 O.3     1  UNL1       -0.4661
      6 O          13.1546    0.3437    0.0000 O.2     1  UNL1       -0.2508
      7 O           4.4176   -1.3458    0.0000 O.2     1  UNL1       -0.2479
      8 O          11.1851   -4.4797    0.0000 O.2     1  UNL1       -0.4706
      9 O           3.7836    1.0204    0.0000 O.2     1  UNL1       -0.2450
     10 C           7.4713    0.3568    0.0000 C.3     1  UNL1        0.0396
     11 C           8.6923   -0.5089    0.0000 C.3     1  UNL1       -0.0071
     12 C           6.1996   -0.4379    0.0000 C.3     1  UNL1        0.0166
     13 C           5.4225    0.1915    0.0000 C.3     1  UNL1        0.0097
     14 C           9.5214    0.0503    0.0000 C.2     1  UNL1       -0.0644
     15 C          10.5452   -1.4303    0.0000 C.3     1  UNL1        0.0163
     16 C          10.4645   -0.3918    0.0000 C.3     1  UNL1       -0.0005
     17 C           7.2125    1.3227    0.0000 C.3     1  UNL1        0.0739
     18 C           5.7808    1.1251    0.0000 C.3     1  UNL1        0.1217
     19 C           8.7490   -1.5490    0.0000 C.3     1  UNL1       -0.0450
     20 C           7.9491    2.3053    0.0000 C.2     1  UNL1        0.1504
     21 C           9.6816   -2.0128    0.0000 C.3     1  UNL1       -0.0428
     22 C           9.2457    1.0116    0.0000 C.2     1  UNL1       -0.0705
     23 C           7.2124   -0.6091    0.0000 C.3     1  UNL1       -0.0519
     24 C           6.1473   -1.4365    0.0000 C.3     1  UNL1        0.1558
     25 C          11.5167   -1.9134    0.0000 C.3     1  UNL1        0.1368
     26 C          11.3497    0.2355    0.0000 C.3     1  UNL1        0.0521
     27 C           4.4565    0.4503    0.0000 C.3     1  UNL1       -0.0560
     28 C           4.7154   -0.5156    0.0000 C.3     1  UNL1       -0.0560
     29 C          10.6226   -2.4273    0.0000 C.3     1  UNL1       -0.0553
     30 C          12.3321   -0.2250    0.0000 C.2     1  UNL1        0.3083
     31 C          11.5826   -2.9113    0.0000 C.ar    1  UNL1        0.0310
     32 C           5.2563   -1.8905    0.0000 C.2     1  UNL1        0.3361
     33 C           4.2376    1.9114    0.0000 C.2     1  UNL1        0.3395
     34 C          12.4286   -3.4445    0.0000 C.ar    1  UNL1       -0.0172
     35 C          10.8141   -3.5511    0.0000 C.ar    1  UNL1        0.0984
     36 C          12.1829   -4.4138    0.0000 C.ar    1  UNL1        0.0921
     37 C           3.6929    2.7500    0.0000 C.ar    1  UNL1        0.0590
     38 C           4.3129   -3.3431    0.0000 C.3     1  UNL1        0.0817
     39 C           2.6943    2.6977    0.0000 C.ar    1  UNL1       -0.0478
     40 C           4.1469    3.6411    0.0000 C.ar    1  UNL1       -0.0478
     41 C           2.1497    3.5364    0.0000 C.ar    1  UNL1       -0.0610
     42 C           3.6023    4.4797    0.0000 C.ar    1  UNL1       -0.0610
     43 C           2.6036    4.4274    0.0000 C.ar    1  UNL1       -0.0617
     44 H           7.9876   -0.9842    0.0000 H       1  UNL1        0.0355
     45 H           5.4231   -0.7836    0.0000 H       1  UNL1        0.0347
     46 H          10.3889    0.4548    0.0000 H       1  UNL1        0.0357
     47 H           6.9925    2.1438    0.0000 H       1  UNL1        0.0457
     48 H           5.1642    1.0602    0.0000 H       1  UNL1        0.0750
     49 H           8.5719   -2.1432    0.0000 H       1  UNL1        0.0271
     50 H           8.1332   -1.4762    0.0000 H       1  UNL1        0.0271
     51 H          10.1112   -2.4599    0.0000 H       1  UNL1        0.0272
     52 H           9.3146   -2.5125    0.0000 H       1  UNL1        0.0272
     53 H           9.6553    1.4770    0.0000 H       1  UNL1        0.0580
     54 H           7.8113   -0.7696    0.0000 H       1  UNL1        0.0239
     55 H           7.0519   -1.2080    0.0000 H       1  UNL1        0.0239
     56 H           6.6135   -0.4486    0.0000 H       1  UNL1        0.0239
     57 H           6.6997   -1.1550    0.0000 H       1  UNL1        0.0713
     58 H          12.0734   -2.1863    0.0000 H       1  UNL1        0.0792
     59 H          10.9100    0.6726    0.0000 H       1  UNL1        0.0384
     60 H          11.7051    0.7436    0.0000 H       1  UNL1        0.0384
     61 H           5.1538   -0.9540    0.0000 H       1  UNL1        0.0236
     62 H           4.2770   -0.9540    0.0000 H       1  UNL1        0.0236
     63 H           4.2770   -0.0772    0.0000 H       1  UNL1        0.0236
     64 H           4.2961   -0.1486    0.0000 H       1  UNL1        0.0236
     65 H           3.8577    0.6108    0.0000 H       1  UNL1        0.0236
     66 H           4.6170    1.0492    0.0000 H       1  UNL1        0.0236
     67 H          11.2407   -2.3793    0.0000 H       1  UNL1        0.0237
     68 H          10.6706   -3.0455    0.0000 H       1  UNL1        0.0237
     69 H          10.0045   -2.4753    0.0000 H       1  UNL1        0.0237
     70 H           6.9535   -2.6003    0.0000 H       1  UNL1        0.2105
     71 H          13.0043   -3.2144    0.0000 H       1  UNL1        0.0653
     72 H          10.2130   -3.3988    0.0000 H       1  UNL1        0.1033
     73 H          12.5796   -4.8903    0.0000 H       1  UNL1        0.1029
     74 H           4.5944   -3.8955    0.0000 H       1  UNL1        0.0661
     75 H           3.7605   -3.6246    0.0000 H       1  UNL1        0.0661
     76 H           4.0315   -2.7907    0.0000 H       1  UNL1        0.0661
     77 H           2.4128    2.1453    0.0000 H       1  UNL1        0.0626
     78 H           4.7661    3.6735    0.0000 H       1  UNL1        0.0626
     79 H           1.5305    3.5039    0.0000 H       1  UNL1        0.0618
     80 H           3.8838    5.0322    0.0000 H       1  UNL1        0.0618
     81 H           2.2660    4.9474    0.0000 H       1  UNL1        0.0618
@<TRIPOS>BOND
     1    18     1    1
     2     1    33    1
     3     2    25    1
     4     2    30    1
     5     3    20    2
     6    24     4    1
     7     4    70    1
     8     5    32    1
     9     5    38    1
    10     6    30    2
    11     7    32    2
    12     8    35   ar
    13     8    36   ar
    14     9    33    2
    15    10    11    1
    16    10    12    1
    17    10    20    1
    18    10    23    1
    19    11    14    1
    20    11    19    1
    21    11    44    1
    22    12    13    1
    23    12    24    1
    24    12    45    1
    25    13    18    1
    26    13    27    1
    27    13    28    1
    28    14    16    1
    29    14    22    2
    30    15    16    1
    31    15    21    1
    32    15    25    1
    33    15    29    1
    34    16    26    1
    35    16    46    1
    36    17    18    1
    37    17    20    1
    38    17    22    1
    39    17    47    1
    40    18    48    1
    41    19    21    1
    42    19    49    1
    43    19    50    1
    44    21    51    1
    45    21    52    1
    46    22    53    1
    47    23    54    1
    48    23    55    1
    49    23    56    1
    50    24    32    1
    51    24    57    1
    52    25    31    1
    53    25    58    1
    54    26    30    1
    55    26    59    1
    56    26    60    1
    57    27    64    1
    58    27    65    1
    59    27    66    1
    60    28    61    1
    61    28    62    1
    62    28    63    1
    63    29    67    1
    64    29    68    1
    65    29    69    1
    66    31    34   ar
    67    31    35   ar
    68    33    37    1
    69    34    36   ar
    70    34    71    1
    71    35    72    1
    72    36    73    1
    73    37    39   ar
    74    37    40   ar
    75    38    74    1
    76    38    75    1
    77    38    76    1
    78    39    41   ar
    79    39    77    1
    80    40    42   ar
    81    40    78    1
    82    41    43   ar
    83    41    79    1
    84    42    43   ar
    85    42    80    1
    86    43    81    1
