@<TRIPOS>MOLECULE
IMPHY008550
 94 100 0 0 0
SMALL
GASTEIGER

@<TRIPOS>ATOM
      1 O           8.2902    4.0403    0.0000 O.3     1  UNL1       -0.3422
      2 O           6.1076    2.8582    0.0000 O.3     1  UNL1       -0.3850
      3 O           6.5177    4.9351    0.0000 O.3     1  UNL1       -0.3480
      4 O           6.8671   -4.2038    0.0000 O.3     1  UNL1       -0.3451
      5 O           5.1350   -4.2038    0.0000 O.3     1  UNL1       -0.3405
      6 O           6.8671   -6.2038    0.0000 O.3     1  UNL1       -0.3841
      7 O           5.1350   -7.2038    0.0000 O.3     1  UNL1       -0.3864
      8 O           3.4030   -6.2038    0.0000 O.3     1  UNL1       -0.3865
      9 O           2.5369   -4.7038    0.0000 O.3     1  UNL1       -0.3924
     10 C           6.8963    1.9931    0.0000 C.3     1  UNL1        0.0028
     11 C           7.7643    1.4965    0.0000 C.3     1  UNL1       -0.0271
     12 C           7.1018    2.9657    0.0000 C.3     1  UNL1        0.1051
     13 C           7.7681    0.4965    0.0000 C.3     1  UNL1       -0.0305
     14 C           8.0901    3.0726    0.0000 C.3     1  UNL1        0.0918
     15 C           6.9040   -0.0069    0.0000 C.3     1  UNL1       -0.0285
     16 C           8.4987    2.1664    0.0000 C.3     1  UNL1       -0.0201
     17 C           6.0322    1.4898    0.0000 C.3     1  UNL1       -0.0444
     18 C           6.6995    3.8683    0.0000 C.3     1  UNL1        0.0421
     19 C           6.0361    0.4898    0.0000 C.3     1  UNL1       -0.0486
     20 C           6.8920   -1.0484    0.0000 C.3     1  UNL1       -0.0078
     21 C           7.4324    4.5311    0.0000 C.3     1  UNL1        0.1757
     22 C           5.9108    2.1630    0.0000 C.3     1  UNL1       -0.0566
     23 C           8.6801   -0.0069    0.0000 C.3     1  UNL1       -0.0311
     24 C           7.7920   -1.5727    0.0000 C.2     1  UNL1       -0.0648
     25 C           5.9421   -1.5727    0.0000 C.3     1  UNL1       -0.0413
     26 C           5.7211    4.0750    0.0000 C.3     1  UNL1       -0.0548
     27 C           8.2397    5.1213    0.0000 C.3     1  UNL1        0.0021
     28 C           8.6921   -1.0484    0.0000 C.2     1  UNL1       -0.0839
     29 C           6.0279   -0.5451    0.0000 C.3     1  UNL1       -0.0556
     30 C           7.8046   -2.6576    0.0000 C.3     1  UNL1       -0.0047
     31 C           5.9295   -2.6576    0.0000 C.3     1  UNL1       -0.0254
     32 C           8.1322    6.1155    0.0000 C.3     1  UNL1       -0.0435
     33 C           6.8671   -3.2038    0.0000 C.3     1  UNL1        0.0655
     34 C           6.4102    5.9293    0.0000 C.3     1  UNL1        0.0535
     35 C           7.2174    6.5195    0.0000 C.3     1  UNL1       -0.0201
     36 C           7.1100    7.5138    0.0000 C.3     1  UNL1       -0.0603
     37 C           6.0010   -4.7038    0.0000 C.3     1  UNL1        0.1882
     38 C           6.0010   -5.7038    0.0000 C.3     1  UNL1        0.1341
     39 C           5.1350   -6.2038    0.0000 C.3     1  UNL1        0.1141
     40 C           4.2690   -4.7038    0.0000 C.3     1  UNL1        0.1130
     41 C           4.2690   -5.7038    0.0000 C.3     1  UNL1        0.1119
     42 C           3.4030   -4.2038    0.0000 C.3     1  UNL1        0.0730
     43 H           8.5426    1.1548    0.0000 H       1  UNL1        0.0311
     44 H           8.4993    0.9300    0.0000 H       1  UNL1        0.0310
     45 H           8.9350    3.1658    0.0000 H       1  UNL1        0.0626
     46 H           7.6385   -0.4347    0.0000 H       1  UNL1        0.0312
     47 H           8.8661    1.6670    0.0000 H       1  UNL1        0.0294
     48 H           9.0340    2.4792    0.0000 H       1  UNL1        0.0294
     49 H           5.8179    2.0716    0.0000 H       1  UNL1        0.0272
     50 H           5.4221    1.3798    0.0000 H       1  UNL1        0.0272
     51 H           6.3097    3.3862    0.0000 H       1  UNL1        0.0379
     52 H           5.4251    0.5951    0.0000 H       1  UNL1        0.0268
     53 H           5.8263   -0.0936    0.0000 H       1  UNL1        0.0268
     54 H           6.0162    2.7740    0.0000 H       1  UNL1        0.0236
     55 H           5.2999    2.2683    0.0000 H       1  UNL1        0.0236
     56 H           5.8056    1.5520    0.0000 H       1  UNL1        0.0236
     57 H           9.2921   -0.1059    0.0000 H       1  UNL1        0.0310
     58 H           8.8824    0.5792    0.0000 H       1  UNL1        0.0310
     59 H           5.7416    3.3587    0.0000 H       1  UNL1        0.2103
     60 H           5.7398   -0.9866    0.0000 H       1  UNL1        0.0274
     61 H           5.3300   -1.6717    0.0000 H       1  UNL1        0.0274
     62 H           5.8492    4.6816    0.0000 H       1  UNL1        0.0235
     63 H           5.1145    4.2032    0.0000 H       1  UNL1        0.0235
     64 H           5.5929    3.4684    0.0000 H       1  UNL1        0.0235
     65 H           8.5132    4.5649    0.0000 H       1  UNL1        0.0317
     66 H           8.8352    5.2940    0.0000 H       1  UNL1        0.0317
     67 H           9.2314   -1.3543    0.0000 H       1  UNL1        0.0572
     68 H           6.3400   -0.0093    0.0000 H       1  UNL1        0.0238
     69 H           5.4922   -0.2330    0.0000 H       1  UNL1        0.0238
     70 H           5.7158   -1.0808    0.0000 H       1  UNL1        0.0238
     71 H           8.0204   -3.2389    0.0000 H       1  UNL1        0.0335
     72 H           8.4142   -2.5445    0.0000 H       1  UNL1        0.0335
     73 H           5.3199   -2.5445    0.0000 H       1  UNL1        0.0290
     74 H           5.7137   -3.2389    0.0000 H       1  UNL1        0.0290
     75 H           8.7508    6.0741    0.0000 H       1  UNL1        0.0270
     76 H           8.2804    6.7176    0.0000 H       1  UNL1        0.0270
     77 H           7.4046   -3.5127    0.0000 H       1  UNL1        0.0600
     78 H           6.1367    6.4858    0.0000 H       1  UNL1        0.0563
     79 H           5.8147    5.7567    0.0000 H       1  UNL1        0.0563
     80 H           7.7180    6.8855    0.0000 H       1  UNL1        0.0320
     81 H           7.7264    7.5804    0.0000 H       1  UNL1        0.0233
     82 H           7.0433    8.1302    0.0000 H       1  UNL1        0.0233
     83 H           6.4935    7.4471    0.0000 H       1  UNL1        0.0233
     84 H           6.0010   -4.0838    0.0000 H       1  UNL1        0.0937
     85 H           6.0010   -6.3238    0.0000 H       1  UNL1        0.0671
     86 H           4.5981   -6.5138    0.0000 H       1  UNL1        0.0648
     87 H           4.2690   -4.0838    0.0000 H       1  UNL1        0.0647
     88 H           4.2690   -6.3238    0.0000 H       1  UNL1        0.0647
     89 H           6.8671   -6.8238    0.0000 H       1  UNL1        0.2101
     90 H           3.8015   -3.7288    0.0000 H       1  UNL1        0.0584
     91 H           3.0044   -3.7288    0.0000 H       1  UNL1        0.0584
     92 H           4.5981   -7.5138    0.0000 H       1  UNL1        0.2100
     93 H           3.4030   -6.8238    0.0000 H       1  UNL1        0.2100
     94 H           2.0000   -4.3938    0.0000 H       1  UNL1        0.2095
@<TRIPOS>BOND
     1     1    14    1
     2    21     1    1
     3    12     2    1
     4     2    59    1
     5     3    21    1
     6     3    34    1
     7    33     4    1
     8    37     4    1
     9     5    37    1
    10     5    40    1
    11    38     6    1
    12     6    89    1
    13    39     7    1
    14     7    92    1
    15    41     8    1
    16     8    93    1
    17     9    42    1
    18     9    94    1
    19    10    11    1
    20    10    12    1
    21    10    17    1
    22    10    22    1
    23    11    13    1
    24    11    16    1
    25    11    43    1
    26    12    14    1
    27    12    18    1
    28    13    15    1
    29    13    23    1
    30    13    44    1
    31    14    16    1
    32    14    45    1
    33    15    19    1
    34    15    20    1
    35    15    46    1
    36    16    47    1
    37    16    48    1
    38    17    19    1
    39    17    49    1
    40    17    50    1
    41    18    21    1
    42    18    26    1
    43    18    51    1
    44    19    52    1
    45    19    53    1
    46    20    24    1
    47    20    25    1
    48    20    29    1
    49    21    27    1
    50    22    54    1
    51    22    55    1
    52    22    56    1
    53    23    28    1
    54    23    57    1
    55    23    58    1
    56    24    28    2
    57    24    30    1
    58    25    31    1
    59    25    60    1
    60    25    61    1
    61    26    62    1
    62    26    63    1
    63    26    64    1
    64    27    32    1
    65    27    65    1
    66    27    66    1
    67    28    67    1
    68    29    68    1
    69    29    69    1
    70    29    70    1
    71    30    33    1
    72    30    71    1
    73    30    72    1
    74    31    33    1
    75    31    73    1
    76    31    74    1
    77    32    35    1
    78    32    75    1
    79    32    76    1
    80    33    77    1
    81    34    35    1
    82    34    78    1
    83    34    79    1
    84    35    36    1
    85    35    80    1
    86    36    81    1
    87    36    82    1
    88    36    83    1
    89    37    38    1
    90    37    84    1
    91    38    39    1
    92    38    85    1
    93    39    41    1
    94    39    86    1
    95    40    41    1
    96    40    42    1
    97    40    87    1
    98    41    88    1
    99    42    90    1
   100    42    91    1
