@<TRIPOS>MOLECULE
IMPHY001798
 41 44 0 0 0
SMALL
GASTEIGER

@<TRIPOS>ATOM
      1 O           5.5440    1.2510    0.0000 O.3     1  UNL1       -0.4809
      2 O           4.6501   -1.2143    0.0000 O.2     1  UNL1       -0.4216
      3 O           3.7841    4.2857    0.0000 O.3     1  UNL1       -0.5061
      4 O           5.5161    0.2857    0.0000 O.2     1  UNL1       -0.2445
      5 O           2.9059   -4.2836    0.0000 O.3     1  UNL1       -0.5066
      6 C           6.4501    1.7648    0.0000 C.3     1  UNL1        0.1235
      7 C           4.6501    1.7857    0.0000 C.ar    1  UNL1        0.1402
      8 C           4.6501    2.7857    0.0000 C.ar    1  UNL1        0.0585
      9 C           6.4501    2.8065    0.0000 C.2     1  UNL1       -0.0408
     10 C           3.7841    1.2857    0.0000 C.ar    1  UNL1        0.0315
     11 C           7.4501    1.7610    0.0000 C.3     1  UNL1       -0.0215
     12 C           6.9468    0.8969    0.0000 C.3     1  UNL1       -0.0215
     13 C           5.5440    3.3203    0.0000 C.2     1  UNL1       -0.0478
     14 C           3.7841    0.2857    0.0000 C.ar    1  UNL1        0.0707
     15 C           3.7841    3.2857    0.0000 C.ar    1  UNL1        0.1275
     16 C           2.9180    1.7857    0.0000 C.ar    1  UNL1       -0.0468
     17 C           2.9180    2.7857    0.0000 C.ar    1  UNL1       -0.0188
     18 C           2.9180   -0.2143    0.0000 C.ar    1  UNL1       -0.0364
     19 C           2.9180   -1.2143    0.0000 C.ar    1  UNL1        0.0184
     20 C           4.6501   -0.2143    0.0000 C.ar    1  UNL1        0.3452
     21 C           3.7841   -1.7143    0.0000 C.ar    1  UNL1        0.1425
     22 C           2.0080   -1.7212    0.0000 C.ar    1  UNL1       -0.0476
     23 C           3.8001   -2.7558    0.0000 C.ar    1  UNL1        0.0229
     24 C           2.0000   -2.7628    0.0000 C.ar    1  UNL1       -0.0194
     25 C           2.9021   -3.2836    0.0000 C.ar    1  UNL1        0.1204
     26 H           6.9858    3.1185    0.0000 H       1  UNL1        0.0611
     27 H           7.4477    1.1410    0.0000 H       1  UNL1        0.0271
     28 H           8.0701    1.7586    0.0000 H       1  UNL1        0.0271
     29 H           6.4086    0.5890    0.0000 H       1  UNL1        0.0271
     30 H           7.2547    0.3588    0.0000 H       1  UNL1        0.0271
     31 H           7.4849    1.2048    0.0000 H       1  UNL1        0.0271
     32 H           7.4525    2.3810    0.0000 H       1  UNL1        0.0271
     33 H           5.5368    3.9403    0.0000 H       1  UNL1        0.0624
     34 H           2.3811    1.4757    0.0000 H       1  UNL1        0.0626
     35 H           2.3811    3.0957    0.0000 H       1  UNL1        0.0654
     36 H           2.3811    0.0957    0.0000 H       1  UNL1        0.0633
     37 H           1.4747   -1.4050    0.0000 H       1  UNL1        0.0626
     38 H           4.3406   -3.0596    0.0000 H       1  UNL1        0.0691
     39 H           3.2471    4.5957    0.0000 H       1  UNL1        0.2922
     40 H           1.4619   -3.0707    0.0000 H       1  UNL1        0.0654
     41 H           2.3702   -4.5957    0.0000 H       1  UNL1        0.2921
@<TRIPOS>BOND
     1     1     6    1
     2     1     7    1
     3     2    20   ar
     4     2    21   ar
     5     3    15    1
     6     3    39    1
     7     4    20    2
     8     5    25    1
     9     5    41    1
    10     6     9    1
    11     6    11    1
    12     6    12    1
    13     7     8   ar
    14     7    10   ar
    15     8    13    1
    16     8    15   ar
    17     9    13    2
    18     9    26    1
    19    10    14    1
    20    10    16   ar
    21    11    27    1
    22    11    28    1
    23    11    32    1
    24    12    29    1
    25    12    30    1
    26    12    31    1
    27    13    33    1
    28    14    18   ar
    29    14    20   ar
    30    15    17   ar
    31    16    17   ar
    32    16    34    1
    33    17    35    1
    34    18    19   ar
    35    18    36    1
    36    19    21   ar
    37    19    22   ar
    38    21    23   ar
    39    22    24   ar
    40    22    37    1
    41    23    25   ar
    42    23    38    1
    43    24    25   ar
    44    24    40    1
