@<TRIPOS>MOLECULE
IMPHY011073
 39 41 0 0 0
SMALL
GASTEIGER

@<TRIPOS>ATOM
      1 C           3.8915    0.1079    0.0000 C.3     1  UNL1       -0.0111
      2 C           4.7005    0.6957    0.0000 C.3     1  UNL1       -0.0315
      3 C           3.0825    0.6957    0.0000 C.3     1  UNL1       -0.0074
      4 C           3.5819   -0.8367    0.0000 C.3     1  UNL1       -0.0163
      5 C           4.2012   -0.8367    0.0000 C.3     1  UNL1       -0.0455
      6 C           5.5032    0.1093    0.0000 C.3     1  UNL1       -0.0405
      7 C           4.3915    1.6468    0.0000 C.3     1  UNL1       -0.0486
      8 C           3.3915    1.6468    0.0000 C.3     1  UNL1       -0.0434
      9 C           5.1952   -0.8359    0.0000 C.3     1  UNL1       -0.0496
     10 C           2.2798    0.1093    0.0000 C.2     1  UNL1       -0.0783
     11 C           2.5878   -0.8359    0.0000 C.2     1  UNL1       -0.0726
     12 C           2.2735    1.2835    0.0000 C.3     1  UNL1       -0.0556
     13 C           4.1682   -1.6468    0.0000 C.3     1  UNL1       -0.0582
     14 C           6.4548    0.4167    0.0000 C.3     1  UNL1       -0.0621
     15 C           2.0000   -1.6449    0.0000 C.3     1  UNL1       -0.0435
     16 H           5.2026    1.0595    0.0000 H       1  UNL1        0.0309
     17 H           3.2997   -1.3888    0.0000 H       1  UNL1        0.0349
     18 H           3.5950   -0.9668    0.0000 H       1  UNL1        0.0271
     19 H           4.2668   -1.4532    0.0000 H       1  UNL1        0.0271
     20 H           5.6015    0.7215    0.0000 H       1  UNL1        0.0301
     21 H           4.9980    1.7757    0.0000 H       1  UNL1        0.0268
     22 H           4.3267    2.2634    0.0000 H       1  UNL1        0.0268
     23 H           3.4563    2.2634    0.0000 H       1  UNL1        0.0274
     24 H           2.7850    1.7757    0.0000 H       1  UNL1        0.0274
     25 H           5.1306   -1.4525    0.0000 H       1  UNL1        0.0268
     26 H           5.8016   -0.9649    0.0000 H       1  UNL1        0.0268
     27 H           1.6898    0.2999    0.0000 H       1  UNL1        0.0577
     28 H           2.6379    1.7851    0.0000 H       1  UNL1        0.0238
     29 H           1.7719    1.6479    0.0000 H       1  UNL1        0.0238
     30 H           1.9090    0.7819    0.0000 H       1  UNL1        0.0238
     31 H           3.6660   -2.0103    0.0000 H       1  UNL1        0.0236
     32 H           4.5318   -2.1490    0.0000 H       1  UNL1        0.0236
     33 H           4.6705   -1.2832    0.0000 H       1  UNL1        0.0236
     34 H           6.6454   -0.1733    0.0000 H       1  UNL1        0.0233
     35 H           7.0448    0.6072    0.0000 H       1  UNL1        0.0233
     36 H           6.2642    1.0067    0.0000 H       1  UNL1        0.0233
     37 H           1.4984   -1.2804    0.0000 H       1  UNL1        0.0274
     38 H           1.6356   -2.1465    0.0000 H       1  UNL1        0.0274
     39 H           2.5016   -2.0093    0.0000 H       1  UNL1        0.0274
@<TRIPOS>BOND
     1     1     2    1
     2     1     3    1
     3     1     4    1
     4     1     5    1
     5     2     6    1
     6     2     7    1
     7     2    16    1
     8     3     8    1
     9     3    10    1
    10     3    12    1
    11     4    11    1
    12     4    13    1
    13     4    17    1
    14     5     9    1
    15     5    18    1
    16     5    19    1
    17     6     9    1
    18     6    14    1
    19     6    20    1
    20     7     8    1
    21     7    21    1
    22     7    22    1
    23     8    23    1
    24     8    24    1
    25     9    25    1
    26     9    26    1
    27    10    11    2
    28    10    27    1
    29    11    15    1
    30    12    28    1
    31    12    29    1
    32    12    30    1
    33    13    31    1
    34    13    32    1
    35    13    33    1
    36    14    34    1
    37    14    35    1
    38    14    36    1
    39    15    37    1
    40    15    38    1
    41    15    39    1
