@<TRIPOS>MOLECULE
IMPHY007717
 12 11 0 0 0
SMALL
GASTEIGER

@<TRIPOS>ATOM
      1 C           2.8660   -0.2500    0.0000 C.2     1  UNL1       -0.0913
      2 C           3.7320    0.2500    0.0000 C.2     1  UNL1       -0.0913
      3 C           2.0000    0.2500    0.0000 C.3     1  UNL1       -0.0468
      4 C           4.5981   -0.2500    0.0000 C.3     1  UNL1       -0.0468
      5 H           2.8660   -0.8700    0.0000 H       1  UNL1        0.0566
      6 H           3.7320    0.8700    0.0000 H       1  UNL1        0.0566
      7 H           2.3100    0.7869    0.0000 H       1  UNL1        0.0272
      8 H           1.4631    0.5600    0.0000 H       1  UNL1        0.0272
      9 H           1.6900   -0.2869    0.0000 H       1  UNL1        0.0272
     10 H           4.2881   -0.7869    0.0000 H       1  UNL1        0.0272
     11 H           5.1350   -0.5600    0.0000 H       1  UNL1        0.0272
     12 H           4.9081    0.2869    0.0000 H       1  UNL1        0.0272
@<TRIPOS>BOND
     1     1     2    2
     2     1     3    1
     3     1     5    1
     4     2     4    1
     5     2     6    1
     6     3     7    1
     7     3     8    1
     8     3     9    1
     9     4    10    1
    10     4    11    1
    11     4    12    1
