@<TRIPOS>MOLECULE
IMPHY007669
 138 146 0 0 0
SMALL
GASTEIGER

@<TRIPOS>ATOM
      1 O          21.7823    1.5438    0.0000 O.3     1  UNL1       -0.3876
      2 O          20.9028   -1.9529    0.0000 O.3     1  UNL1       -0.3911
      3 O          16.3933    2.6169    0.0000 O.3     1  UNL1       -0.3480
      4 O          23.0232   -3.3344    0.0000 O.3     1  UNL1       -0.4571
      5 O          14.6613    2.6169    0.0000 O.3     1  UNL1       -0.3456
      6 O          24.7827   -3.6169    0.0000 O.2     1  UNL1       -0.2456
      7 O          14.6613   -0.3831    0.0000 O.3     1  UNL1       -0.3890
      8 O          12.9292    0.6169    0.0000 O.3     1  UNL1       -0.3429
      9 O          12.0632    2.1169    0.0000 O.3     1  UNL1       -0.3456
     10 O           9.4651    2.6169    0.0000 O.3     1  UNL1       -0.3429
     11 O           9.4651    0.6169    0.0000 O.3     1  UNL1       -0.3890
     12 O           7.7331    2.6169    0.0000 O.3     1  UNL1       -0.3456
     13 O           6.0010    0.6169    0.0000 O.3     1  UNL1       -0.3429
     14 O           7.7331   -0.3831    0.0000 O.3     1  UNL1       -0.3890
     15 O           5.1350    2.1169    0.0000 O.3     1  UNL1       -0.3456
     16 O           2.5369    0.6169    0.0000 O.3     1  UNL1       -0.3890
     17 O           2.5369    2.6169    0.0000 O.3     1  UNL1       -0.3867
     18 C          21.7785    0.5438    0.0000 C.3     1  UNL1        0.0774
     19 C          20.9144    1.0471    0.0000 C.3     1  UNL1       -0.0081
     20 C          20.0464    0.5504    0.0000 C.3     1  UNL1       -0.0276
     21 C          21.7746   -0.4562    0.0000 C.3     1  UNL1        0.0295
     22 C          19.1384    1.0608    0.0000 C.3     1  UNL1       -0.0258
     23 C          19.1344    2.1024    0.0000 C.3     1  UNL1       -0.0330
     24 C          20.9067   -0.9529    0.0000 C.3     1  UNL1        0.0641
     25 C          20.0426   -0.4496    0.0000 C.3     1  UNL1       -0.0225
     26 C          22.7197   -0.7646    0.0000 C.3     1  UNL1       -0.0057
     27 C          22.7259    0.8448    0.0000 C.3     1  UNL1       -0.0226
     28 C          20.9345    2.0885    0.0000 C.3     1  UNL1       -0.0470
     29 C          20.0385    2.6197    0.0000 C.3     1  UNL1       -0.0493
     30 C          23.3064    0.0379    0.0000 C.3     1  UNL1       -0.0431
     31 C          18.2094    0.5003    0.0000 C.3     1  UNL1       -0.0448
     32 C          21.7708   -1.4562    0.0000 C.3     1  UNL1       -0.0540
     33 C          18.2011    2.6557    0.0000 C.3     1  UNL1       -0.0232
     34 C          19.1423    0.0608    0.0000 C.3     1  UNL1       -0.0590
     35 C          17.2635    1.0319    0.0000 C.3     1  UNL1       -0.0260
     36 C          17.2594    2.1169    0.0000 C.3     1  UNL1        0.0620
     37 C          23.0267   -1.7163    0.0000 C.2     1  UNL1       -0.0221
     38 C          22.4372   -2.5241    0.0000 C.3     1  UNL1        0.1147
     39 C          23.9771   -2.0274    0.0000 C.2     1  UNL1        0.0252
     40 C          23.9749   -3.0274    0.0000 C.2     1  UNL1        0.3323
     41 C          15.5273    2.1169    0.0000 C.3     1  UNL1        0.1624
     42 C          15.5273    1.1169    0.0000 C.3     1  UNL1        0.0270
     43 C          14.6613    0.6169    0.0000 C.3     1  UNL1        0.0884
     44 C          13.7953    2.1169    0.0000 C.3     1  UNL1        0.0875
     45 C          13.7953    1.1169    0.0000 C.3     1  UNL1        0.1134
     46 C          12.9292    2.6169    0.0000 C.3     1  UNL1       -0.0361
     47 C          12.0632    1.1169    0.0000 C.3     1  UNL1        0.1626
     48 C          11.1972    0.6169    0.0000 C.3     1  UNL1        0.0270
     49 C          10.3312    1.1169    0.0000 C.3     1  UNL1        0.0884
     50 C          11.1972    2.6169    0.0000 C.3     1  UNL1        0.0875
     51 C          10.3312    2.1169    0.0000 C.3     1  UNL1        0.1134
     52 C          11.1972    3.6169    0.0000 C.3     1  UNL1       -0.0361
     53 C           8.5991    2.1169    0.0000 C.3     1  UNL1        0.1626
     54 C           8.5991    1.1169    0.0000 C.3     1  UNL1        0.0270
     55 C           7.7331    0.6169    0.0000 C.3     1  UNL1        0.0884
     56 C           6.8671    1.1169    0.0000 C.3     1  UNL1        0.1134
     57 C           6.8671    2.1169    0.0000 C.3     1  UNL1        0.0875
     58 C           6.0010    2.6169    0.0000 C.3     1  UNL1       -0.0361
     59 C           5.1350    1.1169    0.0000 C.3     1  UNL1        0.1626
     60 C           4.2690    0.6169    0.0000 C.3     1  UNL1        0.0270
     61 C           3.4030    1.1169    0.0000 C.3     1  UNL1        0.0881
     62 C           3.4030    2.1169    0.0000 C.3     1  UNL1        0.1070
     63 C           4.2690    2.6169    0.0000 C.3     1  UNL1        0.0871
     64 C           4.2690    3.6169    0.0000 C.3     1  UNL1       -0.0361
     65 H          21.6554    1.4635    0.0000 H       1  UNL1        0.0331
     66 H          20.7809    0.1226    0.0000 H       1  UNL1        0.0310
     67 H          19.1409    2.9524    0.0000 H       1  UNL1        0.0307
     68 H          20.3685   -1.2608    0.0000 H       1  UNL1        0.0600
     69 H          19.4324   -0.3395    0.0000 H       1  UNL1        0.0293
     70 H          19.8283   -1.0314    0.0000 H       1  UNL1        0.0293
     71 H          23.3318   -0.8632    0.0000 H       1  UNL1        0.0354
     72 H          23.2644    1.1520    0.0000 H       1  UNL1        0.0293
     73 H          22.4770    1.4127    0.0000 H       1  UNL1        0.0293
     74 H          21.5432    1.9707    0.0000 H       1  UNL1        0.0269
     75 H          21.1547    2.6681    0.0000 H       1  UNL1        0.0269
     76 H          20.4412    3.0911    0.0000 H       1  UNL1        0.0268
     77 H          19.6430    3.0972    0.0000 H       1  UNL1        0.0268
     78 H          23.7656   -0.3786    0.0000 H       1  UNL1        0.0272
     79 H          23.7688    0.4508    0.0000 H       1  UNL1        0.0272
     80 H          17.8176    0.0197    0.0000 H       1  UNL1        0.0271
     81 H          18.6158    0.0321    0.0000 H       1  UNL1        0.0271
     82 H          21.1508   -1.4538    0.0000 H       1  UNL1        0.0237
     83 H          21.7684   -2.0762    0.0000 H       1  UNL1        0.0237
     84 H          22.3908   -1.4586    0.0000 H       1  UNL1        0.0237
     85 H          18.6039    3.1271    0.0000 H       1  UNL1        0.0293
     86 H          17.8056    3.1332    0.0000 H       1  UNL1        0.0293
     87 H          18.5223    0.0584    0.0000 H       1  UNL1        0.0235
     88 H          19.1446   -0.5592    0.0000 H       1  UNL1        0.0235
     89 H          19.7622    0.0632    0.0000 H       1  UNL1        0.0235
     90 H          16.6523    1.1356    0.0000 H       1  UNL1        0.0290
     91 H          17.0567    0.4474    0.0000 H       1  UNL1        0.0290
     92 H          16.7230    1.8058    0.0000 H       1  UNL1        0.0597
     93 H          22.3205    1.8517    0.0000 H       1  UNL1        0.2102
     94 H          20.3647   -2.2608    0.0000 H       1  UNL1        0.2098
     95 H          21.9773   -2.1082    0.0000 H       1  UNL1        0.0746
     96 H          21.9755   -2.9380    0.0000 H       1  UNL1        0.0746
     97 H          24.4794   -1.6640    0.0000 H       1  UNL1        0.0689
     98 H          15.5273    2.7369    0.0000 H       1  UNL1        0.0910
     99 H          15.7394    0.5343    0.0000 H       1  UNL1        0.0340
    100 H          16.1379    1.2245    0.0000 H       1  UNL1        0.0340
    101 H          14.1244    0.3069    0.0000 H       1  UNL1        0.0622
    102 H          13.7953    2.7369    0.0000 H       1  UNL1        0.0621
    103 H          13.2583    1.4269    0.0000 H       1  UNL1        0.0649
    104 H          13.2392    3.1538    0.0000 H       1  UNL1        0.0255
    105 H          12.3923    2.9269    0.0000 H       1  UNL1        0.0255
    106 H          12.6192    2.0799    0.0000 H       1  UNL1        0.0255
    107 H          15.1982   -0.6931    0.0000 H       1  UNL1        0.2099
    108 H          12.0632    0.4969    0.0000 H       1  UNL1        0.0910
    109 H          10.7987    0.1419    0.0000 H       1  UNL1        0.0340
    110 H          11.5957    0.1419    0.0000 H       1  UNL1        0.0340
    111 H           9.7942    1.4269    0.0000 H       1  UNL1        0.0622
    112 H          11.7341    2.9269    0.0000 H       1  UNL1        0.0621
    113 H          10.3312    2.7369    0.0000 H       1  UNL1        0.0649
    114 H          11.8172    3.6169    0.0000 H       1  UNL1        0.0255
    115 H          11.1972    4.2369    0.0000 H       1  UNL1        0.0255
    116 H          10.5772    3.6169    0.0000 H       1  UNL1        0.0255
    117 H           9.4651   -0.0031    0.0000 H       1  UNL1        0.2099
    118 H           8.5991    2.7369    0.0000 H       1  UNL1        0.0910
    119 H           8.8112    0.5343    0.0000 H       1  UNL1        0.0340
    120 H           9.2097    1.2245    0.0000 H       1  UNL1        0.0340
    121 H           8.2700    0.3069    0.0000 H       1  UNL1        0.0622
    122 H           6.3301    1.4269    0.0000 H       1  UNL1        0.0649
    123 H           6.8671    2.7369    0.0000 H       1  UNL1        0.0621
    124 H           6.3110    3.1538    0.0000 H       1  UNL1        0.0255
    125 H           5.4641    2.9269    0.0000 H       1  UNL1        0.0255
    126 H           5.6910    2.0799    0.0000 H       1  UNL1        0.0255
    127 H           5.1350    0.4969    0.0000 H       1  UNL1        0.0910
    128 H           3.8705    0.1419    0.0000 H       1  UNL1        0.0340
    129 H           4.6675    0.1419    0.0000 H       1  UNL1        0.0340
    130 H           7.1962   -0.6931    0.0000 H       1  UNL1        0.2099
    131 H           3.4030    0.4969    0.0000 H       1  UNL1        0.0621
    132 H           3.4030    2.7369    0.0000 H       1  UNL1        0.0645
    133 H           4.8059    2.9269    0.0000 H       1  UNL1        0.0621
    134 H           4.8890    3.6169    0.0000 H       1  UNL1        0.0255
    135 H           4.2690    4.2369    0.0000 H       1  UNL1        0.0255
    136 H           3.6490    3.6169    0.0000 H       1  UNL1        0.0255
    137 H           2.5369   -0.0031    0.0000 H       1  UNL1        0.2099
    138 H           2.0000    2.3069    0.0000 H       1  UNL1        0.2100
@<TRIPOS>BOND
     1    18     1    1
     2     1    93    1
     3    24     2    1
     4     2    94    1
     5    36     3    1
     6    41     3    1
     7     4    38    1
     8     4    40    1
     9     5    41    1
    10     5    44    1
    11     6    40    2
    12    43     7    1
    13     7   107    1
    14    45     8    1
    15    47     8    1
    16     9    47    1
    17     9    50    1
    18    51    10    1
    19    53    10    1
    20    49    11    1
    21    11   117    1
    22    12    53    1
    23    12    57    1
    24    56    13    1
    25    59    13    1
    26    55    14    1
    27    14   130    1
    28    15    59    1
    29    15    63    1
    30    61    16    1
    31    16   137    1
    32    62    17    1
    33    17   138    1
    34    18    19    1
    35    18    21    1
    36    18    27    1
    37    19    20    1
    38    19    28    1
    39    19    65    1
    40    20    22    1
    41    20    25    1
    42    20    66    1
    43    21    24    1
    44    21    26    1
    45    21    32    1
    46    22    23    1
    47    22    31    1
    48    22    34    1
    49    23    29    1
    50    23    33    1
    51    23    67    1
    52    24    25    1
    53    24    68    1
    54    25    69    1
    55    25    70    1
    56    26    30    1
    57    26    37    1
    58    26    71    1
    59    27    30    1
    60    27    72    1
    61    27    73    1
    62    28    29    1
    63    28    74    1
    64    28    75    1
    65    29    76    1
    66    29    77    1
    67    30    78    1
    68    30    79    1
    69    31    35    1
    70    31    80    1
    71    31    81    1
    72    32    82    1
    73    32    83    1
    74    32    84    1
    75    33    36    1
    76    33    85    1
    77    33    86    1
    78    34    87    1
    79    34    88    1
    80    34    89    1
    81    35    36    1
    82    35    90    1
    83    35    91    1
    84    36    92    1
    85    37    38    1
    86    37    39    2
    87    38    95    1
    88    38    96    1
    89    39    40    1
    90    39    97    1
    91    41    42    1
    92    41    98    1
    93    42    43    1
    94    42    99    1
    95    42   100    1
    96    43    45    1
    97    43   101    1
    98    44    45    1
    99    44    46    1
   100    44   102    1
   101    45   103    1
   102    46   104    1
   103    46   105    1
   104    46   106    1
   105    47    48    1
   106    47   108    1
   107    48    49    1
   108    48   109    1
   109    48   110    1
   110    49    51    1
   111    49   111    1
   112    50    51    1
   113    50    52    1
   114    50   112    1
   115    51   113    1
   116    52   114    1
   117    52   115    1
   118    52   116    1
   119    53    54    1
   120    53   118    1
   121    54    55    1
   122    54   119    1
   123    54   120    1
   124    55    56    1
   125    55   121    1
   126    56    57    1
   127    56   122    1
   128    57    58    1
   129    57   123    1
   130    58   124    1
   131    58   125    1
   132    58   126    1
   133    59    60    1
   134    59   127    1
   135    60    61    1
   136    60   128    1
   137    60   129    1
   138    61    62    1
   139    61   131    1
   140    62    63    1
   141    62   132    1
   142    63    64    1
   143    63   133    1
   144    64   134    1
   145    64   135    1
   146    64   136    1
