@<TRIPOS>MOLECULE
IMPHY001388
 172 179 0 0 0
SMALL
GASTEIGER

@<TRIPOS>ATOM
      1 O          12.2955    2.4959    0.0000 O.3     1  UNL1       -0.3108
      2 O          10.5634    2.4959    0.0000 O.3     1  UNL1       -0.3382
      3 O          10.5634   -0.5041    0.0000 O.3     1  UNL1       -0.3389
      4 O          11.2955    3.4959    0.0000 O.3     1  UNL1       -0.3346
      5 O          12.2955    0.4959    0.0000 O.3     1  UNL1       -0.3377
      6 O           9.6974   -2.0041    0.0000 O.3     1  UNL1       -0.3394
      7 O           8.8314    0.4959    0.0000 O.3     1  UNL1       -0.4528
      8 O          13.5556    4.7559    0.0000 O.3     1  UNL1       -0.4496
      9 O           7.0993   -2.5041    0.0000 O.3     1  UNL1       -0.3401
     10 O          11.4295   -1.0041    0.0000 O.3     1  UNL1       -0.3405
     11 O          11.7955    6.0347    0.0000 O.3     1  UNL1       -0.3853
     12 O           9.4742    0.2619    0.0000 O.3     1  UNL1       -0.3841
     13 O           6.9805   -0.8305    0.0000 O.3     1  UNL1       -0.3864
     14 O          13.9897    3.8560    0.0000 O.3     1  UNL1       -0.4560
     15 O           8.8314    3.4959    0.0000 O.3     1  UNL1       -0.4621
     16 O           7.4001   -4.2099    0.0000 O.3     1  UNL1       -0.3405
     17 O          14.0275   -0.5041    0.0000 O.3     1  UNL1       -0.3841
     18 O          14.0275   -2.5041    0.0000 O.3     1  UNL1       -0.3864
     19 O           9.8275    5.7341    0.0000 O.3     1  UNL1       -0.3924
     20 O          12.2955   -3.5041    0.0000 O.3     1  UNL1       -0.3865
     21 O           9.6974   -4.0041    0.0000 O.3     1  UNL1       -0.4621
     22 O           5.1297   -2.8514    0.0000 O.3     1  UNL1       -0.3841
     23 O           4.4457   -4.7308    0.0000 O.3     1  UNL1       -0.3864
     24 O           5.7313   -6.2630    0.0000 O.3     1  UNL1       -0.3865
     25 O          10.5634   -3.5041    0.0000 O.3     1  UNL1       -0.3924
     26 O           7.9654    1.9959    0.0000 O.2     1  UNL1       -0.2456
     27 O          13.0203    6.4032    0.0000 O.2     1  UNL1       -0.2449
     28 O           7.3588   -6.8553    0.0000 O.3     1  UNL1       -0.3924
     29 O          15.6839    4.2161    0.0000 O.2     1  UNL1       -0.2456
     30 O           7.0993    3.4959    0.0000 O.2     1  UNL1       -0.2512
     31 O           8.8314   -5.5041    0.0000 O.2     1  UNL1       -0.2512
     32 O           3.0826    2.7731    0.0000 O.3     1  UNL1       -0.4914
     33 O           2.3985    0.8937    0.0000 O.3     1  UNL1       -0.5033
     34 O          18.4176   -0.3145    0.0000 O.3     1  UNL1       -0.4914
     35 O          16.9314   -1.6528    0.0000 O.3     1  UNL1       -0.5033
     36 C          10.5634    0.4959    0.0000 C.3     1  UNL1        0.1320
     37 C          11.4295    0.9959    0.0000 C.3     1  UNL1        0.1421
     38 C          11.4295    1.9959    0.0000 C.3     1  UNL1        0.1918
     39 C           9.6974    0.9959    0.0000 C.3     1  UNL1        0.1612
     40 C          12.2955    3.4959    0.0000 C.3     1  UNL1        0.2481
     41 C           9.6974    1.9959    0.0000 C.3     1  UNL1        0.1350
     42 C          12.6045    4.4469    0.0000 C.3     1  UNL1        0.1884
     43 C          11.7955    5.0347    0.0000 C.3     1  UNL1        0.1256
     44 C          10.9865    4.4469    0.0000 C.3     1  UNL1        0.1146
     45 C           9.6974   -1.0041    0.0000 C.3     1  UNL1        0.1885
     46 C           8.8314   -0.5041    0.0000 C.3     1  UNL1        0.1341
     47 C           7.9654   -2.0041    0.0000 C.3     1  UNL1        0.1195
     48 C           7.9654   -1.0041    0.0000 C.3     1  UNL1        0.1145
     49 C           8.8314   -2.5041    0.0000 C.3     1  UNL1        0.1243
     50 C          12.2955   -0.5041    0.0000 C.3     1  UNL1        0.1885
     51 C          13.2465    3.1868    0.0000 C.3     1  UNL1        0.1504
     52 C           8.8314    2.4959    0.0000 C.3     1  UNL1        0.1222
     53 C          13.1615   -1.0041    0.0000 C.3     1  UNL1        0.1341
     54 C          13.1615   -2.0041    0.0000 C.3     1  UNL1        0.1141
     55 C          10.0354    4.7559    0.0000 C.3     1  UNL1        0.0731
     56 C          12.2955   -2.5041    0.0000 C.3     1  UNL1        0.1119
     57 C          11.4295   -2.0041    0.0000 C.3     1  UNL1        0.1130
     58 C           6.7574   -3.4439    0.0000 C.3     1  UNL1        0.1884
     59 C           8.8314   -3.5041    0.0000 C.3     1  UNL1        0.1211
     60 C           5.7725   -3.6175    0.0000 C.3     1  UNL1        0.1341
     61 C           5.4305   -4.5572    0.0000 C.3     1  UNL1        0.1141
     62 C           6.0734   -5.3233    0.0000 C.3     1  UNL1        0.1119
     63 C           7.0581   -5.1496    0.0000 C.3     1  UNL1        0.1130
     64 C          10.5634   -2.5041    0.0000 C.3     1  UNL1        0.0730
     65 C           7.9654    0.9959    0.0000 C.2     1  UNL1        0.3324
     66 C          13.7635    5.7341    0.0000 C.2     1  UNL1        0.3397
     67 C           7.7009   -5.9156    0.0000 C.3     1  UNL1        0.0730
     68 C          14.9407    3.5470    0.0000 C.2     1  UNL1        0.3321
     69 C           7.9654    3.9959    0.0000 C.2     1  UNL1        0.3040
     70 C          14.7145    6.0431    0.0000 C.ar    1  UNL1        0.0590
     71 C           6.9805    0.8222    0.0000 C.2     1  UNL1        0.0231
     72 C           9.6974   -5.0041    0.0000 C.2     1  UNL1        0.3040
     73 C           7.9654    4.9959    0.0000 C.3     1  UNL1        0.0332
     74 C          15.1486    2.5688    0.0000 C.2     1  UNL1        0.0231
     75 C          15.4577    5.3740    0.0000 C.ar    1  UNL1       -0.0478
     76 C          14.9224    7.0212    0.0000 C.ar    1  UNL1       -0.0478
     77 C           6.3378    1.5884    0.0000 C.2     1  UNL1       -0.0477
     78 C          10.5634   -5.5041    0.0000 C.3     1  UNL1        0.0332
     79 C          16.4087    5.6830    0.0000 C.ar    1  UNL1       -0.0610
     80 C          15.8735    7.3303    0.0000 C.ar    1  UNL1       -0.0610
     81 C          16.0997    2.2598    0.0000 C.2     1  UNL1       -0.0477
     82 C           5.3530    1.4147    0.0000 C.ar    1  UNL1       -0.0211
     83 C          16.6166    6.6611    0.0000 C.ar    1  UNL1       -0.0617
     84 C          16.3076    1.2816    0.0000 C.ar    1  UNL1       -0.0211
     85 C           4.7102    2.1807    0.0000 C.ar    1  UNL1       -0.0092
     86 C           5.0109    0.4749    0.0000 C.ar    1  UNL1       -0.0509
     87 C           3.7254    2.0071    0.0000 C.ar    1  UNL1        0.1618
     88 C           4.0261    0.3013    0.0000 C.ar    1  UNL1       -0.0160
     89 C          17.2587    0.9726    0.0000 C.ar    1  UNL1       -0.0092
     90 C          15.5645    0.6125    0.0000 C.ar    1  UNL1       -0.0509
     91 C           3.3833    1.0674    0.0000 C.ar    1  UNL1        0.1585
     92 C          17.4666   -0.0055    0.0000 C.ar    1  UNL1        0.1618
     93 C          15.7724   -0.3656    0.0000 C.ar    1  UNL1       -0.0160
     94 C          16.7234   -0.6747    0.0000 C.ar    1  UNL1        0.1585
     95 C           3.4246    3.7127    0.0000 C.3     1  UNL1        0.0790
     96 C          18.6256   -1.2927    0.0000 C.3     1  UNL1        0.0790
     97 H          11.1004    0.1859    0.0000 H       1  UNL1        0.0663
     98 H          11.9664    1.3059    0.0000 H       1  UNL1        0.0675
     99 H          11.4295    2.6159    0.0000 H       1  UNL1        0.0939
    100 H           9.1605    1.3059    0.0000 H       1  UNL1        0.0789
    101 H           9.6974    2.6159    0.0000 H       1  UNL1        0.0669
    102 H          12.7015    5.0593    0.0000 H       1  UNL1        0.0817
    103 H          12.3479    5.3162    0.0000 H       1  UNL1        0.0659
    104 H          10.5481    4.0085    0.0000 H       1  UNL1        0.0647
    105 H           9.6974   -0.3841    0.0000 H       1  UNL1        0.0938
    106 H           8.4328   -0.0292    0.0000 H       1  UNL1        0.0671
    107 H           7.9654   -2.6241    0.0000 H       1  UNL1        0.0651
    108 H           7.8577   -0.3936    0.0000 H       1  UNL1        0.0648
    109 H           9.3683   -2.8141    0.0000 H       1  UNL1        0.0658
    110 H          12.8324   -0.1941    0.0000 H       1  UNL1        0.0938
    111 H          12.9555    2.6394    0.0000 H       1  UNL1        0.0753
    112 H          13.7351    2.8051    0.0000 H       1  UNL1        0.0753
    113 H           8.2208    2.6035    0.0000 H       1  UNL1        0.0725
    114 H           8.6193    1.9132    0.0000 H       1  UNL1        0.0725
    115 H          13.6984   -1.3141    0.0000 H       1  UNL1        0.0671
    116 H          13.1615   -2.6241    0.0000 H       1  UNL1        0.0648
    117 H           9.4158    4.7343    0.0000 H       1  UNL1        0.0584
    118 H           9.9491    4.1420    0.0000 H       1  UNL1        0.0584
    119 H          11.7585   -2.8141    0.0000 H       1  UNL1        0.0647
    120 H          10.8925   -1.6941    0.0000 H       1  UNL1        0.0647
    121 H           6.3588   -2.9689    0.0000 H       1  UNL1        0.0938
    122 H           8.2208   -3.3965    0.0000 H       1  UNL1        0.0724
    123 H           8.6193   -4.0868    0.0000 H       1  UNL1        0.0724
    124 H           5.1619   -3.7252    0.0000 H       1  UNL1        0.0671
    125 H          12.3324    6.3447    0.0000 H       1  UNL1        0.2101
    126 H           5.2185   -5.1398    0.0000 H       1  UNL1        0.0648
    127 H           9.9491   -0.1366    0.0000 H       1  UNL1        0.2101
    128 H           6.4719   -5.7982    0.0000 H       1  UNL1        0.0647
    129 H           7.6686   -5.0419    0.0000 H       1  UNL1        0.0647
    130 H           6.5820   -1.3054    0.0000 H       1  UNL1        0.2100
    131 H          10.3514   -1.9215    0.0000 H       1  UNL1        0.0584
    132 H           9.9528   -2.6118    0.0000 H       1  UNL1        0.0584
    133 H          14.5645   -0.8141    0.0000 H       1  UNL1        0.2101
    134 H          14.0275   -3.1241    0.0000 H       1  UNL1        0.2100
    135 H           9.2378    5.9257    0.0000 H       1  UNL1        0.2095
    136 H          12.8324   -3.8141    0.0000 H       1  UNL1        0.2100
    137 H           8.2378   -6.2256    0.0000 H       1  UNL1        0.0584
    138 H           8.0994   -5.4407    0.0000 H       1  UNL1        0.0584
    139 H           4.5191   -2.9591    0.0000 H       1  UNL1        0.2101
    140 H           4.2336   -5.3135    0.0000 H       1  UNL1        0.2100
    141 H           6.7685    0.2396    0.0000 H       1  UNL1        0.0689
    142 H           5.1207   -6.3706    0.0000 H       1  UNL1        0.2100
    143 H          11.1004   -3.8141    0.0000 H       1  UNL1        0.2095
    144 H           8.5854    4.9959    0.0000 H       1  UNL1        0.0342
    145 H           7.9654    5.6159    0.0000 H       1  UNL1        0.0342
    146 H           7.3454    4.9959    0.0000 H       1  UNL1        0.0342
    147 H          14.6879    2.1539    0.0000 H       1  UNL1        0.0689
    148 H           7.7574   -7.3303    0.0000 H       1  UNL1        0.2095
    149 H          15.3288    4.7675    0.0000 H       1  UNL1        0.0626
    150 H          14.4617    7.4361    0.0000 H       1  UNL1        0.0626
    151 H           6.5498    2.1709    0.0000 H       1  UNL1        0.0626
    152 H          10.2534   -6.0411    0.0000 H       1  UNL1        0.0342
    153 H          11.1004   -5.8141    0.0000 H       1  UNL1        0.0342
    154 H          10.8734   -4.9672    0.0000 H       1  UNL1        0.0342
    155 H          16.8695    5.2681    0.0000 H       1  UNL1        0.0618
    156 H          16.0024    7.9367    0.0000 H       1  UNL1        0.0618
    157 H          16.5605    2.6747    0.0000 H       1  UNL1        0.0626
    158 H          17.2063    6.8527    0.0000 H       1  UNL1        0.0618
    159 H           4.9222    2.7634    0.0000 H       1  UNL1        0.0661
    160 H           5.4094   -0.0000    0.0000 H       1  UNL1        0.0625
    161 H           3.8140   -0.2813    0.0000 H       1  UNL1        0.0655
    162 H          17.7194    1.3875    0.0000 H       1  UNL1        0.0661
    163 H          14.9748    0.8041    0.0000 H       1  UNL1        0.0625
    164 H          15.3116   -0.7805    0.0000 H       1  UNL1        0.0655
    165 H           2.0000    1.3687    0.0000 H       1  UNL1        0.2923
    166 H           4.0072    3.5007    0.0000 H       1  UNL1        0.0660
    167 H           3.6366    4.2954    0.0000 H       1  UNL1        0.0660
    168 H           2.8420    3.9248    0.0000 H       1  UNL1        0.0660
    169 H          16.4706   -2.0677    0.0000 H       1  UNL1        0.2923
    170 H          18.0191   -1.4216    0.0000 H       1  UNL1        0.0660
    171 H          18.7545   -1.8991    0.0000 H       1  UNL1        0.0660
    172 H          19.2320   -1.1638    0.0000 H       1  UNL1        0.0660
@<TRIPOS>BOND
     1    38     1    1
     2    40     1    1
     3     2    38    1
     4     2    41    1
     5    36     3    1
     6    45     3    1
     7     4    40    1
     8     4    44    1
     9    37     5    1
    10    50     5    1
    11     6    45    1
    12     6    49    1
    13    39     7    1
    14     7    65    1
    15    42     8    1
    16     8    66    1
    17    47     9    1
    18    58     9    1
    19    10    50    1
    20    10    57    1
    21    43    11    1
    22    11   125    1
    23    46    12    1
    24    12   127    1
    25    48    13    1
    26    13   130    1
    27    14    51    1
    28    14    68    1
    29    15    52    1
    30    15    69    1
    31    16    58    1
    32    16    63    1
    33    53    17    1
    34    17   133    1
    35    54    18    1
    36    18   134    1
    37    19    55    1
    38    19   135    1
    39    56    20    1
    40    20   136    1
    41    21    59    1
    42    21    72    1
    43    60    22    1
    44    22   139    1
    45    61    23    1
    46    23   140    1
    47    62    24    1
    48    24   142    1
    49    25    64    1
    50    25   143    1
    51    26    65    2
    52    27    66    2
    53    28    67    1
    54    28   148    1
    55    29    68    2
    56    30    69    2
    57    31    72    2
    58    32    87    1
    59    32    95    1
    60    33    91    1
    61    33   165    1
    62    34    92    1
    63    34    96    1
    64    35    94    1
    65    35   169    1
    66    36    37    1
    67    36    39    1
    68    36    97    1
    69    37    38    1
    70    37    98    1
    71    38    99    1
    72    39    41    1
    73    39   100    1
    74    40    42    1
    75    40    51    1
    76    41    52    1
    77    41   101    1
    78    42    43    1
    79    42   102    1
    80    43    44    1
    81    43   103    1
    82    44    55    1
    83    44   104    1
    84    45    46    1
    85    45   105    1
    86    46    48    1
    87    46   106    1
    88    47    48    1
    89    47    49    1
    90    47   107    1
    91    48   108    1
    92    49    59    1
    93    49   109    1
    94    50    53    1
    95    50   110    1
    96    51   111    1
    97    51   112    1
    98    52   113    1
    99    52   114    1
   100    53    54    1
   101    53   115    1
   102    54    56    1
   103    54   116    1
   104    55   117    1
   105    55   118    1
   106    56    57    1
   107    56   119    1
   108    57    64    1
   109    57   120    1
   110    58    60    1
   111    58   121    1
   112    59   122    1
   113    59   123    1
   114    60    61    1
   115    60   124    1
   116    61    62    1
   117    61   126    1
   118    62    63    1
   119    62   128    1
   120    63    67    1
   121    63   129    1
   122    64   131    1
   123    64   132    1
   124    65    71    1
   125    66    70    1
   126    67   137    1
   127    67   138    1
   128    68    74    1
   129    69    73    1
   130    70    75   ar
   131    70    76   ar
   132    71    77    2
   133    71   141    1
   134    72    78    1
   135    73   144    1
   136    73   145    1
   137    73   146    1
   138    74    81    2
   139    74   147    1
   140    75    79   ar
   141    75   149    1
   142    76    80   ar
   143    76   150    1
   144    77    82    1
   145    77   151    1
   146    78   152    1
   147    78   153    1
   148    78   154    1
   149    79    83   ar
   150    79   155    1
   151    80    83   ar
   152    80   156    1
   153    81    84    1
   154    81   157    1
   155    82    85   ar
   156    82    86   ar
   157    83   158    1
   158    84    89   ar
   159    84    90   ar
   160    85    87   ar
   161    85   159    1
   162    86    88   ar
   163    86   160    1
   164    87    91   ar
   165    88    91   ar
   166    88   161    1
   167    89    92   ar
   168    89   162    1
   169    90    93   ar
   170    90   163    1
   171    92    94   ar
   172    93    94   ar
   173    93   164    1
   174    95   166    1
   175    95   167    1
   176    95   168    1
   177    96   170    1
   178    96   171    1
   179    96   172    1
