@<TRIPOS>MOLECULE
IMPHY014551
 82 87 0 0 0
SMALL
GASTEIGER

@<TRIPOS>ATOM
      1 O           4.7184    1.4392    0.0000 O.2     1  UNL1       -0.2962
      2 O           6.0010   -3.3750    0.0000 O.3     1  UNL1       -0.3454
      3 O           4.8504    5.8600    0.0000 O.3     1  UNL1       -0.4571
      4 O           4.2690   -3.3750    0.0000 O.3     1  UNL1       -0.3431
      5 O           6.0010   -5.3750    0.0000 O.3     1  UNL1       -0.3841
      6 O           6.3151    6.8750    0.0000 O.2     1  UNL1       -0.2456
      7 O           4.2690   -6.3750    0.0000 O.3     1  UNL1       -0.3744
      8 O           2.5369   -5.3750    0.0000 O.3     1  UNL1       -0.3866
      9 C           6.9021    1.3252    0.0000 C.3     1  UNL1        0.0329
     10 C           6.0380    0.8219    0.0000 C.3     1  UNL1       -0.0230
     11 C           6.0260   -0.2197    0.0000 C.3     1  UNL1       -0.0254
     12 C           6.9260   -0.7439    0.0000 C.3     1  UNL1       -0.0330
     13 C           4.8228    2.9080    0.0000 C.3     1  UNL1        0.0333
     14 C           7.8140    0.8219    0.0000 C.3     1  UNL1       -0.0401
     15 C           5.0711    1.0770    0.0000 C.3     1  UNL1       -0.0479
     16 C           7.1572    2.2922    0.0000 C.3     1  UNL1       -0.0398
     17 C           5.6408    1.8254    0.0000 C.2     1  UNL1        0.1461
     18 C           7.8261   -0.2197    0.0000 C.3     1  UNL1       -0.0487
     19 C           4.5678    1.9411    0.0000 C.3     1  UNL1       -0.0400
     20 C           5.0761   -0.7439    0.0000 C.3     1  UNL1       -0.0447
     21 C           5.6869    3.4113    0.0000 C.3     1  UNL1       -0.0041
     22 C           6.6539    3.1562    0.0000 C.3     1  UNL1       -0.0446
     23 C           6.9386   -1.8289    0.0000 C.3     1  UNL1       -0.0232
     24 C           5.0418   -0.0422    0.0000 C.3     1  UNL1       -0.0590
     25 C           5.0635   -1.8289    0.0000 C.3     1  UNL1       -0.0260
     26 C           6.0010   -2.3750    0.0000 C.3     1  UNL1        0.0621
     27 C           4.0272    3.5137    0.0000 C.3     1  UNL1       -0.0523
     28 C           5.5526    4.4023    0.0000 C.2     1  UNL1       -0.0219
     29 C           4.6719    4.8760    0.0000 C.3     1  UNL1        0.1147
     30 C           6.2753    5.0934    0.0000 C.2     1  UNL1        0.0252
     31 C           5.1350   -3.8750    0.0000 C.3     1  UNL1        0.1881
     32 C           5.8413    5.9943    0.0000 C.2     1  UNL1        0.3323
     33 C           5.1350   -4.8750    0.0000 C.3     1  UNL1        0.1344
     34 C           4.2690   -5.3750    0.0000 C.3     1  UNL1        0.1170
     35 C           3.4030   -3.8750    0.0000 C.3     1  UNL1        0.0873
     36 C           3.4030   -4.8750    0.0000 C.3     1  UNL1        0.1097
     37 C           2.5369   -3.3750    0.0000 C.3     1  UNL1       -0.0361
     38 C           3.4030   -6.8750    0.0000 C.3     1  UNL1        0.0370
     39 H           5.3035    0.3941    0.0000 H       1  UNL1        0.0316
     40 H           7.6654   -1.1633    0.0000 H       1  UNL1        0.0307
     41 H           8.4261    0.7229    0.0000 H       1  UNL1        0.0275
     42 H           8.0163    1.4080    0.0000 H       1  UNL1        0.0275
     43 H           4.4728    0.9142    0.0000 H       1  UNL1        0.0269
     44 H           5.0735    0.4570    0.0000 H       1  UNL1        0.0269
     45 H           7.6953    1.9842    0.0000 H       1  UNL1        0.0275
     46 H           7.5939    2.7322    0.0000 H       1  UNL1        0.0275
     47 H           8.0419   -0.8009    0.0000 H       1  UNL1        0.0268
     48 H           8.4357   -0.1065    0.0000 H       1  UNL1        0.0268
     49 H           4.0296    2.2490    0.0000 H       1  UNL1        0.0275
     50 H           4.1310    1.5010    0.0000 H       1  UNL1        0.0275
     51 H           4.8738   -0.1579    0.0000 H       1  UNL1        0.0271
     52 H           4.4640   -0.8430    0.0000 H       1  UNL1        0.0271
     53 H           6.1515    3.8219    0.0000 H       1  UNL1        0.0356
     54 H           7.2521    3.3190    0.0000 H       1  UNL1        0.0272
     55 H           6.6515    3.7762    0.0000 H       1  UNL1        0.0272
     56 H           7.1544   -2.4101    0.0000 H       1  UNL1        0.0293
     57 H           7.5482   -1.7157    0.0000 H       1  UNL1        0.0293
     58 H           5.1518    0.5679    0.0000 H       1  UNL1        0.0235
     59 H           4.4317    0.0678    0.0000 H       1  UNL1        0.0235
     60 H           4.9318   -0.6524    0.0000 H       1  UNL1        0.0235
     61 H           4.4539   -1.7157    0.0000 H       1  UNL1        0.0290
     62 H           4.8477   -2.4101    0.0000 H       1  UNL1        0.0290
     63 H           6.5386   -2.6840    0.0000 H       1  UNL1        0.0597
     64 H           4.4027    4.0070    0.0000 H       1  UNL1        0.0239
     65 H           3.5338    3.8892    0.0000 H       1  UNL1        0.0239
     66 H           3.6516    3.0204    0.0000 H       1  UNL1        0.0239
     67 H           4.0768    5.0498    0.0000 H       1  UNL1        0.0746
     68 H           4.4369    4.3023    0.0000 H       1  UNL1        0.0746
     69 H           6.8854    4.9828    0.0000 H       1  UNL1        0.0689
     70 H           5.1350   -3.2550    0.0000 H       1  UNL1        0.0937
     71 H           5.1350   -5.4950    0.0000 H       1  UNL1        0.0671
     72 H           3.7320   -5.6850    0.0000 H       1  UNL1        0.0650
     73 H           3.4030   -3.2550    0.0000 H       1  UNL1        0.0621
     74 H           3.4030   -5.4950    0.0000 H       1  UNL1        0.0646
     75 H           6.0010   -5.9950    0.0000 H       1  UNL1        0.2101
     76 H           2.8469   -2.8380    0.0000 H       1  UNL1        0.0255
     77 H           2.0000   -3.0650    0.0000 H       1  UNL1        0.0255
     78 H           2.2269   -3.9119    0.0000 H       1  UNL1        0.0255
     79 H           2.0000   -5.0650    0.0000 H       1  UNL1        0.2100
     80 H           3.0930   -6.3380    0.0000 H       1  UNL1        0.0524
     81 H           2.8660   -7.1850    0.0000 H       1  UNL1        0.0524
     82 H           3.7130   -7.4119    0.0000 H       1  UNL1        0.0524
@<TRIPOS>BOND
     1     1    17    2
     2    26     2    1
     3    31     2    1
     4     3    29    1
     5     3    32    1
     6     4    31    1
     7     4    35    1
     8    33     5    1
     9     5    75    1
    10     6    32    2
    11    34     7    1
    12     7    38    1
    13    36     8    1
    14     8    79    1
    15     9    10    1
    16     9    14    1
    17     9    16    1
    18     9    17    1
    19    10    11    1
    20    10    15    1
    21    10    39    1
    22    11    12    1
    23    11    20    1
    24    11    24    1
    25    12    18    1
    26    12    23    1
    27    12    40    1
    28    13    17    1
    29    13    19    1
    30    13    21    1
    31    13    27    1
    32    14    18    1
    33    14    41    1
    34    14    42    1
    35    15    19    1
    36    15    43    1
    37    15    44    1
    38    16    22    1
    39    16    45    1
    40    16    46    1
    41    18    47    1
    42    18    48    1
    43    19    49    1
    44    19    50    1
    45    20    25    1
    46    20    51    1
    47    20    52    1
    48    21    22    1
    49    21    28    1
    50    21    53    1
    51    22    54    1
    52    22    55    1
    53    23    26    1
    54    23    56    1
    55    23    57    1
    56    24    58    1
    57    24    59    1
    58    24    60    1
    59    25    26    1
    60    25    61    1
    61    25    62    1
    62    26    63    1
    63    27    64    1
    64    27    65    1
    65    27    66    1
    66    28    29    1
    67    28    30    2
    68    29    67    1
    69    29    68    1
    70    30    32    1
    71    30    69    1
    72    31    33    1
    73    31    70    1
    74    33    34    1
    75    33    71    1
    76    34    36    1
    77    34    72    1
    78    35    36    1
    79    35    37    1
    80    35    73    1
    81    36    74    1
    82    37    76    1
    83    37    77    1
    84    37    78    1
    85    38    80    1
    86    38    81    1
    87    38    82    1
