@<TRIPOS>MOLECULE
IMPHY011456
 133 141 0 0 0
SMALL
GASTEIGER

@<TRIPOS>ATOM
      1 O           9.4651   -3.4895    0.0000 O.3     1  UNL1       -0.3451
      2 O           7.7331   -3.4895    0.0000 O.3     1  UNL1       -0.3405
      3 O           9.4651   -5.4895    0.0000 O.3     1  UNL1       -0.3378
      4 O           7.7331   -6.4895    0.0000 O.3     1  UNL1       -0.3864
      5 O           6.0010   -5.4895    0.0000 O.3     1  UNL1       -0.3401
      6 O          10.3312   -3.9895    0.0000 O.3     1  UNL1       -0.3431
      7 O           6.0010   -2.4895    0.0000 O.3     1  UNL1       -0.3924
      8 O           5.1350   -3.9895    0.0000 O.3     1  UNL1       -0.3431
      9 O          11.1972   -6.4895    0.0000 O.3     1  UNL1       -0.3841
     10 O          12.9292   -5.4895    0.0000 O.3     1  UNL1       -0.3864
     11 O           4.2690   -6.4895    0.0000 O.3     1  UNL1       -0.3841
     12 O          12.9292   -3.4895    0.0000 O.3     1  UNL1       -0.3866
     13 O           2.5369   -5.4895    0.0000 O.3     1  UNL1       -0.3864
     14 O           2.5369   -3.4895    0.0000 O.3     1  UNL1       -0.3866
     15 N          10.8882    4.7546    0.0000 N.3     1  UNL1       -0.2956
     16 C           9.4944    2.7074    0.0000 C.3     1  UNL1       -0.0244
     17 C           9.6999    3.6800    0.0000 C.3     1  UNL1       -0.0157
     18 C          10.3623    2.2107    0.0000 C.3     1  UNL1       -0.0305
     19 C          10.6882    3.7869    0.0000 C.3     1  UNL1        0.0146
     20 C          10.3662    1.2107    0.0000 C.3     1  UNL1       -0.0306
     21 C          11.0968    2.8806    0.0000 C.3     1  UNL1       -0.0334
     22 C           9.2976    4.5826    0.0000 C.3     1  UNL1       -0.0235
     23 C           9.5021    0.7074    0.0000 C.3     1  UNL1       -0.0285
     24 C           8.6303    2.2041    0.0000 C.3     1  UNL1       -0.0468
     25 C          10.0305    5.2454    0.0000 C.3     1  UNL1        0.0136
     26 C           8.6342    1.2041    0.0000 C.3     1  UNL1       -0.0486
     27 C           9.4901   -0.3342    0.0000 C.3     1  UNL1       -0.0078
     28 C           8.6264    3.2040    0.0000 C.3     1  UNL1       -0.0590
     29 C          11.2781    0.7074    0.0000 C.3     1  UNL1       -0.0311
     30 C          10.0107    6.2745    0.0000 C.3     1  UNL1       -0.0368
     31 C          11.7856    5.2589    0.0000 C.3     1  UNL1        0.0020
     32 C           8.3192    4.7893    0.0000 C.3     1  UNL1       -0.0607
     33 C          10.3901   -0.8584    0.0000 C.2     1  UNL1       -0.0648
     34 C          11.7895    6.2882    0.0000 C.3     1  UNL1       -0.0310
     35 C           8.5402   -0.8584    0.0000 C.3     1  UNL1       -0.0413
     36 C          10.8961    6.7995    0.0000 C.3     1  UNL1       -0.0479
     37 C          11.2902   -0.3342    0.0000 C.2     1  UNL1       -0.0839
     38 C           8.6260    0.1692    0.0000 C.3     1  UNL1       -0.0556
     39 C          10.4027   -1.9434    0.0000 C.3     1  UNL1       -0.0047
     40 C           8.5276   -1.9434    0.0000 C.3     1  UNL1       -0.0254
     41 C           9.4651   -2.4895    0.0000 C.3     1  UNL1        0.0655
     42 C          12.6555    6.7882    0.0000 C.3     1  UNL1       -0.0613
     43 C           8.5991   -3.9895    0.0000 C.3     1  UNL1        0.1886
     44 C           8.5991   -4.9895    0.0000 C.3     1  UNL1        0.1406
     45 C           7.7331   -5.4895    0.0000 C.3     1  UNL1        0.1148
     46 C           6.8671   -3.9895    0.0000 C.3     1  UNL1        0.1134
     47 C           6.8671   -4.9895    0.0000 C.3     1  UNL1        0.1184
     48 C           6.0010   -3.4895    0.0000 C.3     1  UNL1        0.0730
     49 C          10.3312   -4.9895    0.0000 C.3     1  UNL1        0.1884
     50 C          11.1972   -5.4895    0.0000 C.3     1  UNL1        0.1341
     51 C           5.1350   -4.9895    0.0000 C.3     1  UNL1        0.1883
     52 C          12.0632   -4.9895    0.0000 C.3     1  UNL1        0.1140
     53 C          11.1972   -3.4895    0.0000 C.3     1  UNL1        0.0873
     54 C           4.2690   -5.4895    0.0000 C.3     1  UNL1        0.1341
     55 C          12.0632   -3.9895    0.0000 C.3     1  UNL1        0.1095
     56 C           3.4030   -4.9895    0.0000 C.3     1  UNL1        0.1140
     57 C           4.2690   -3.4895    0.0000 C.3     1  UNL1        0.0873
     58 C           3.4030   -3.9895    0.0000 C.3     1  UNL1        0.1095
     59 C          11.1972   -2.4895    0.0000 C.3     1  UNL1       -0.0361
     60 C           4.2690   -2.4895    0.0000 C.3     1  UNL1       -0.0361
     61 H           8.8546    3.5905    0.0000 H       1  UNL1        0.0324
     62 H          11.1406    1.8690    0.0000 H       1  UNL1        0.0309
     63 H          11.5330    3.8801    0.0000 H       1  UNL1        0.0466
     64 H          11.0974    1.6442    0.0000 H       1  UNL1        0.0309
     65 H          11.4642    2.3812    0.0000 H       1  UNL1        0.0283
     66 H          11.6321    3.1935    0.0000 H       1  UNL1        0.0283
     67 H           9.1361    5.1812    0.0000 H       1  UNL1        0.0317
     68 H          10.2366    0.2796    0.0000 H       1  UNL1        0.0312
     69 H           8.4160    2.7858    0.0000 H       1  UNL1        0.0271
     70 H           8.0201    2.0940    0.0000 H       1  UNL1        0.0271
     71 H           9.2504    5.5828    0.0000 H       1  UNL1        0.0465
     72 H           8.0232    1.3094    0.0000 H       1  UNL1        0.0268
     73 H           8.4244    0.6206    0.0000 H       1  UNL1        0.0268
     74 H           8.9344    3.7422    0.0000 H       1  UNL1        0.0235
     75 H           8.0883    3.5120    0.0000 H       1  UNL1        0.0235
     76 H           8.3185    2.6659    0.0000 H       1  UNL1        0.0235
     77 H          11.8902    0.6084    0.0000 H       1  UNL1        0.0310
     78 H          11.4804    1.2935    0.0000 H       1  UNL1        0.0310
     79 H           9.7904    6.8541    0.0000 H       1  UNL1        0.0280
     80 H           9.4020    6.1567    0.0000 H       1  UNL1        0.0280
     81 H          11.9924    4.6744    0.0000 H       1  UNL1        0.0429
     82 H          12.3968    5.3627    0.0000 H       1  UNL1        0.0429
     83 H           8.4473    5.3959    0.0000 H       1  UNL1        0.0233
     84 H           7.7125    4.9174    0.0000 H       1  UNL1        0.0233
     85 H           8.1910    4.1827    0.0000 H       1  UNL1        0.0233
     86 H          12.3259    5.9772    0.0000 H       1  UNL1        0.0310
     87 H           8.3379   -0.2724    0.0000 H       1  UNL1        0.0274
     88 H           7.9281   -0.9575    0.0000 H       1  UNL1        0.0274
     89 H          11.2916    7.2770    0.0000 H       1  UNL1        0.0269
     90 H          10.4933    7.2708    0.0000 H       1  UNL1        0.0269
     91 H          11.8295   -0.6400    0.0000 H       1  UNL1        0.0572
     92 H           8.9380    0.7049    0.0000 H       1  UNL1        0.0238
     93 H           8.0902    0.4812    0.0000 H       1  UNL1        0.0238
     94 H           8.3139   -0.3666    0.0000 H       1  UNL1        0.0238
     95 H          10.6185   -2.5246    0.0000 H       1  UNL1        0.0335
     96 H          11.0123   -1.8302    0.0000 H       1  UNL1        0.0335
     97 H           7.9180   -1.8302    0.0000 H       1  UNL1        0.0290
     98 H           8.3118   -2.5246    0.0000 H       1  UNL1        0.0290
     99 H          10.0027   -2.7984    0.0000 H       1  UNL1        0.0600
    100 H          12.9655    6.2513    0.0000 H       1  UNL1        0.0233
    101 H          13.1925    7.0982    0.0000 H       1  UNL1        0.0233
    102 H          12.3455    7.3252    0.0000 H       1  UNL1        0.0233
    103 H           8.5991   -3.3695    0.0000 H       1  UNL1        0.0938
    104 H           8.5991   -5.6095    0.0000 H       1  UNL1        0.0675
    105 H           7.1962   -5.7995    0.0000 H       1  UNL1        0.0648
    106 H           6.8671   -3.3695    0.0000 H       1  UNL1        0.0647
    107 H           6.3301   -4.6795    0.0000 H       1  UNL1        0.0651
    108 H           5.3905   -3.3818    0.0000 H       1  UNL1        0.0584
    109 H           5.7890   -4.0721    0.0000 H       1  UNL1        0.0584
    110 H           9.7942   -4.6795    0.0000 H       1  UNL1        0.0938
    111 H           7.1962   -6.7995    0.0000 H       1  UNL1        0.2100
    112 H          11.7341   -5.7995    0.0000 H       1  UNL1        0.0671
    113 H           5.1350   -5.6095    0.0000 H       1  UNL1        0.0938
    114 H           5.4641   -2.1795    0.0000 H       1  UNL1        0.2095
    115 H          12.6002   -4.6795    0.0000 H       1  UNL1        0.0648
    116 H          10.6603   -3.1795    0.0000 H       1  UNL1        0.0621
    117 H           3.7320   -5.7995    0.0000 H       1  UNL1        0.0671
    118 H          12.0632   -3.3695    0.0000 H       1  UNL1        0.0646
    119 H           2.6668   -4.5645    0.0000 H       1  UNL1        0.0648
    120 H          11.7341   -6.7995    0.0000 H       1  UNL1        0.2101
    121 H           4.8059   -3.1795    0.0000 H       1  UNL1        0.0621
    122 H           3.4030   -3.3695    0.0000 H       1  UNL1        0.0646
    123 H          11.8172   -2.4895    0.0000 H       1  UNL1        0.0255
    124 H          11.1972   -1.8695    0.0000 H       1  UNL1        0.0255
    125 H          10.5772   -2.4895    0.0000 H       1  UNL1        0.0255
    126 H          13.4662   -5.1795    0.0000 H       1  UNL1        0.2100
    127 H           3.7320   -6.7995    0.0000 H       1  UNL1        0.2101
    128 H          13.4662   -3.7995    0.0000 H       1  UNL1        0.2100
    129 H           4.8890   -2.4895    0.0000 H       1  UNL1        0.0255
    130 H           4.2690   -1.8695    0.0000 H       1  UNL1        0.0255
    131 H           3.6490   -2.4895    0.0000 H       1  UNL1        0.0255
    132 H           2.0000   -5.1795    0.0000 H       1  UNL1        0.2100
    133 H           2.5369   -2.8695    0.0000 H       1  UNL1        0.2100
@<TRIPOS>BOND
     1    41     1    1
     2    43     1    1
     3     2    43    1
     4     2    46    1
     5    44     3    1
     6    49     3    1
     7    45     4    1
     8     4   111    1
     9    47     5    1
    10    51     5    1
    11     6    49    1
    12     6    53    1
    13     7    48    1
    14     7   114    1
    15     8    51    1
    16     8    57    1
    17    50     9    1
    18     9   120    1
    19    52    10    1
    20    10   126    1
    21    54    11    1
    22    11   127    1
    23    55    12    1
    24    12   128    1
    25    13    56    1
    26    13   132    1
    27    58    14    1
    28    14   133    1
    29    15    19    1
    30    15    25    1
    31    15    31    1
    32    16    17    1
    33    16    18    1
    34    16    24    1
    35    16    28    1
    36    17    19    1
    37    17    22    1
    38    17    61    1
    39    18    20    1
    40    18    21    1
    41    18    62    1
    42    19    21    1
    43    19    63    1
    44    20    23    1
    45    20    29    1
    46    20    64    1
    47    21    65    1
    48    21    66    1
    49    22    25    1
    50    22    32    1
    51    22    67    1
    52    23    26    1
    53    23    27    1
    54    23    68    1
    55    24    26    1
    56    24    69    1
    57    24    70    1
    58    25    30    1
    59    25    71    1
    60    26    72    1
    61    26    73    1
    62    27    33    1
    63    27    35    1
    64    27    38    1
    65    28    74    1
    66    28    75    1
    67    28    76    1
    68    29    37    1
    69    29    77    1
    70    29    78    1
    71    30    36    1
    72    30    79    1
    73    30    80    1
    74    31    34    1
    75    31    81    1
    76    31    82    1
    77    32    83    1
    78    32    84    1
    79    32    85    1
    80    33    37    2
    81    33    39    1
    82    34    36    1
    83    34    42    1
    84    34    86    1
    85    35    40    1
    86    35    87    1
    87    35    88    1
    88    36    89    1
    89    36    90    1
    90    37    91    1
    91    38    92    1
    92    38    93    1
    93    38    94    1
    94    39    41    1
    95    39    95    1
    96    39    96    1
    97    40    41    1
    98    40    97    1
    99    40    98    1
   100    41    99    1
   101    42   100    1
   102    42   101    1
   103    42   102    1
   104    43    44    1
   105    43   103    1
   106    44    45    1
   107    44   104    1
   108    45    47    1
   109    45   105    1
   110    46    47    1
   111    46    48    1
   112    46   106    1
   113    47   107    1
   114    48   108    1
   115    48   109    1
   116    49    50    1
   117    49   110    1
   118    50    52    1
   119    50   112    1
   120    51    54    1
   121    51   113    1
   122    52    55    1
   123    52   115    1
   124    53    55    1
   125    53    59    1
   126    53   116    1
   127    54    56    1
   128    54   117    1
   129    55   118    1
   130    56    58    1
   131    56   119    1
   132    57    58    1
   133    57    60    1
   134    57   121    1
   135    58   122    1
   136    59   123    1
   137    59   124    1
   138    59   125    1
   139    60   129    1
   140    60   130    1
   141    60   131    1
