@<TRIPOS>MOLECULE
IMPHY002771
 37 40 0 0 0
SMALL
GASTEIGER

@<TRIPOS>ATOM
      1 O           2.8660   -0.5812    0.0000 O.2     1  UNL1       -0.4215
      2 O           6.3038    2.4719    0.0000 O.3     1  UNL1       -0.4910
      3 O           4.5632    3.4178    0.0000 O.3     1  UNL1       -0.4885
      4 O           2.8611    2.4041    0.0000 O.3     1  UNL1       -0.5027
      5 O           4.5632   -3.5801    0.0000 O.3     1  UNL1       -0.5066
      6 O           2.0000    0.9188    0.0000 O.2     1  UNL1       -0.2444
      7 C           4.5981    0.4188    0.0000 C.ar    1  UNL1        0.0103
      8 C           5.4920    0.9535    0.0000 C.ar    1  UNL1        0.0071
      9 C           6.3981    0.4396    0.0000 C.3     1  UNL1       -0.0195
     10 C           4.5981   -0.5812    0.0000 C.ar    1  UNL1        0.0292
     11 C           6.3981   -0.6020    0.0000 C.3     1  UNL1       -0.0228
     12 C           5.4920   -1.1158    0.0000 C.ar    1  UNL1       -0.0324
     13 C           3.7320    0.9188    0.0000 C.ar    1  UNL1        0.1126
     14 C           3.7320   -1.0812    0.0000 C.ar    1  UNL1        0.1434
     15 C           5.4542    1.9445    0.0000 C.ar    1  UNL1        0.1689
     16 C           5.4542   -2.1068    0.0000 C.ar    1  UNL1       -0.0162
     17 C           3.7308    1.9105    0.0000 C.ar    1  UNL1        0.1770
     18 C           4.5828    2.4180    0.0000 C.ar    1  UNL1        0.2044
     19 C           2.8660    0.4188    0.0000 C.ar    1  UNL1        0.3488
     20 C           3.7308   -2.0729    0.0000 C.ar    1  UNL1        0.0229
     21 C           4.5828   -2.5803    0.0000 C.ar    1  UNL1        0.1206
     22 C           6.2718    3.4714    0.0000 C.3     1  UNL1        0.0790
     23 C           3.6875    3.9006    0.0000 C.3     1  UNL1        0.0791
     24 H           7.0089    0.3336    0.0000 H       1  UNL1        0.0318
     25 H           6.6071    1.0233    0.0000 H       1  UNL1        0.0318
     26 H           6.6071   -1.1857    0.0000 H       1  UNL1        0.0317
     27 H           7.0089   -0.4959    0.0000 H       1  UNL1        0.0317
     28 H           5.9810   -2.4338    0.0000 H       1  UNL1        0.0657
     29 H           3.1916   -2.3789    0.0000 H       1  UNL1        0.0691
     30 H           2.8565    3.0241    0.0000 H       1  UNL1        0.2923
     31 H           6.8915    3.4912    0.0000 H       1  UNL1        0.0660
     32 H           6.2520    4.0911    0.0000 H       1  UNL1        0.0660
     33 H           5.6522    3.4516    0.0000 H       1  UNL1        0.0660
     34 H           5.0939   -3.9006    0.0000 H       1  UNL1        0.2921
     35 H           3.9868    4.4436    0.0000 H       1  UNL1        0.0660
     36 H           3.1445    4.2000    0.0000 H       1  UNL1        0.0660
     37 H           3.3881    3.3577    0.0000 H       1  UNL1        0.0660
@<TRIPOS>BOND
     1     1    14   ar
     2     1    19   ar
     3     2    15    1
     4     2    22    1
     5     3    18    1
     6     3    23    1
     7     4    17    1
     8     4    30    1
     9     5    21    1
    10     5    34    1
    11     6    19    2
    12     7     8   ar
    13     7    10   ar
    14     7    13   ar
    15     8     9    1
    16     8    15   ar
    17     9    11    1
    18     9    24    1
    19     9    25    1
    20    10    12   ar
    21    10    14   ar
    22    11    12    1
    23    11    26    1
    24    11    27    1
    25    12    16   ar
    26    13    17   ar
    27    13    19   ar
    28    14    20   ar
    29    15    18   ar
    30    16    21   ar
    31    16    28    1
    32    17    18   ar
    33    20    21   ar
    34    20    29    1
    35    22    31    1
    36    22    32    1
    37    22    33    1
    38    23    35    1
    39    23    36    1
    40    23    37    1
