@<TRIPOS>MOLECULE
IMPHY000717
 96 101 0 0 0
SMALL
GASTEIGER

@<TRIPOS>ATOM
      1 O           7.1728    4.5879    0.0000 O.3     1  UNL1       -0.3849
      2 O           5.0839   -0.8497    0.0000 O.3     1  UNL1       -0.3908
      3 O           4.7827    4.4489    0.0000 O.3     1  UNL1       -0.4549
      4 O           6.8671   -3.9940    0.0000 O.3     1  UNL1       -0.3450
      5 O           5.1350   -3.9940    0.0000 O.3     1  UNL1       -0.3405
      6 O           3.1343    4.9806    0.0000 O.2     1  UNL1       -0.2453
      7 O           6.8671   -5.9940    0.0000 O.3     1  UNL1       -0.3841
      8 O           5.1350   -6.9940    0.0000 O.3     1  UNL1       -0.3864
      9 O           3.4030   -5.9940    0.0000 O.3     1  UNL1       -0.3865
     10 O           2.5369   -4.4940    0.0000 O.3     1  UNL1       -0.3924
     11 C           6.8963    2.2028    0.0000 C.3     1  UNL1       -0.0234
     12 C           7.7643    1.7062    0.0000 C.3     1  UNL1       -0.0319
     13 C           7.7681    0.7062    0.0000 C.3     1  UNL1       -0.0306
     14 C           6.9040    0.2028    0.0000 C.3     1  UNL1       -0.0262
     15 C           7.1018    3.1754    0.0000 C.3     1  UNL1       -0.0032
     16 C           6.0322    1.6995    0.0000 C.3     1  UNL1       -0.0467
     17 C           6.8920   -0.8387    0.0000 C.3     1  UNL1        0.0181
     18 C           8.4987    2.3761    0.0000 C.3     1  UNL1       -0.0491
     19 C           6.0361    0.6995    0.0000 C.3     1  UNL1       -0.0486
     20 C           8.0901    3.2823    0.0000 C.3     1  UNL1       -0.0467
     21 C           8.6801    0.2028    0.0000 C.3     1  UNL1       -0.0311
     22 C           6.4311    3.9172    0.0000 C.3     1  UNL1        0.1036
     23 C           6.0284    2.6995    0.0000 C.3     1  UNL1       -0.0590
     24 C           7.7920   -1.3630    0.0000 C.2     1  UNL1       -0.0624
     25 C           5.9421   -1.3630    0.0000 C.3     1  UNL1        0.0669
     26 C           8.6921   -0.8387    0.0000 C.2     1  UNL1       -0.0838
     27 C           6.0279   -0.3354    0.0000 C.3     1  UNL1       -0.0532
     28 C           7.8046   -2.4479    0.0000 C.3     1  UNL1       -0.0046
     29 C           5.7604    4.6589    0.0000 C.3     1  UNL1        0.1355
     30 C           5.9295   -2.4479    0.0000 C.3     1  UNL1        0.0007
     31 C           6.8671   -2.9940    0.0000 C.3     1  UNL1        0.0678
     32 C           5.6894    3.2465    0.0000 C.3     1  UNL1       -0.0323
     33 C           6.0674    5.6106    0.0000 C.3     1  UNL1        0.0088
     34 C           5.3966    6.3523    0.0000 C.2     1  UNL1       -0.0594
     35 C           6.0010   -4.4940    0.0000 C.3     1  UNL1        0.1882
     36 C           4.1120    5.1906    0.0000 C.2     1  UNL1        0.3352
     37 C           4.4190    6.1423    0.0000 C.2     1  UNL1        0.0326
     38 C           5.7036    7.3040    0.0000 C.3     1  UNL1       -0.0429
     39 C           6.0010   -5.4940    0.0000 C.3     1  UNL1        0.1341
     40 C           3.7482    6.8841    0.0000 C.3     1  UNL1       -0.0330
     41 C           5.1350   -5.9940    0.0000 C.3     1  UNL1        0.1141
     42 C           4.2690   -4.4940    0.0000 C.3     1  UNL1        0.1130
     43 C           4.2690   -5.4940    0.0000 C.3     1  UNL1        0.1119
     44 C           3.4030   -3.9940    0.0000 C.3     1  UNL1        0.0730
     45 H           8.5426    1.3645    0.0000 H       1  UNL1        0.0309
     46 H           8.4993    1.1397    0.0000 H       1  UNL1        0.0310
     47 H           7.6385   -0.2250    0.0000 H       1  UNL1        0.0313
     48 H           7.4044    3.9698    0.0000 H       1  UNL1        0.0335
     49 H           5.8179    2.2813    0.0000 H       1  UNL1        0.0271
     50 H           5.4221    1.5895    0.0000 H       1  UNL1        0.0271
     51 H           8.8661    1.8767    0.0000 H       1  UNL1        0.0268
     52 H           9.0340    2.6889    0.0000 H       1  UNL1        0.0268
     53 H           5.4251    0.8048    0.0000 H       1  UNL1        0.0268
     54 H           5.8263    0.1161    0.0000 H       1  UNL1        0.0268
     55 H           8.6790    3.4764    0.0000 H       1  UNL1        0.0269
     56 H           7.9590    3.8883    0.0000 H       1  UNL1        0.0269
     57 H           9.2921    0.1038    0.0000 H       1  UNL1        0.0310
     58 H           8.8824    0.7889    0.0000 H       1  UNL1        0.0310
     59 H           6.3363    3.2376    0.0000 H       1  UNL1        0.0235
     60 H           5.4902    3.0074    0.0000 H       1  UNL1        0.0235
     61 H           5.7204    2.1614    0.0000 H       1  UNL1        0.0235
     62 H           5.4010   -1.6657    0.0000 H       1  UNL1        0.0603
     63 H           9.2314   -1.1446    0.0000 H       1  UNL1        0.0572
     64 H           6.3400    0.2004    0.0000 H       1  UNL1        0.0239
     65 H           5.4922   -0.0233    0.0000 H       1  UNL1        0.0239
     66 H           5.7158   -0.8711    0.0000 H       1  UNL1        0.0239
     67 H           8.0204   -3.0292    0.0000 H       1  UNL1        0.0335
     68 H           8.4142   -2.3348    0.0000 H       1  UNL1        0.0335
     69 H           5.4994    3.8499    0.0000 H       1  UNL1        0.0766
     70 H           5.3199   -2.3348    0.0000 H       1  UNL1        0.0315
     71 H           5.7137   -3.0292    0.0000 H       1  UNL1        0.0315
     72 H           7.4046   -3.3030    0.0000 H       1  UNL1        0.0601
     73 H           5.2735    3.7063    0.0000 H       1  UNL1        0.0259
     74 H           5.2295    2.8306    0.0000 H       1  UNL1        0.0259
     75 H           6.1052    2.7866    0.0000 H       1  UNL1        0.0259
     76 H           7.7628    4.3975    0.0000 H       1  UNL1        0.2103
     77 H           6.6154    5.3207    0.0000 H       1  UNL1        0.0347
     78 H           6.4480    6.1000    0.0000 H       1  UNL1        0.0347
     79 H           4.5422   -1.1514    0.0000 H       1  UNL1        0.2098
     80 H           6.0010   -3.8740    0.0000 H       1  UNL1        0.0937
     81 H           6.2937    7.1137    0.0000 H       1  UNL1        0.0275
     82 H           5.8940    7.8941    0.0000 H       1  UNL1        0.0275
     83 H           5.1136    7.4944    0.0000 H       1  UNL1        0.0275
     84 H           6.0010   -6.1140    0.0000 H       1  UNL1        0.0671
     85 H           4.2081    7.2999    0.0000 H       1  UNL1        0.0280
     86 H           3.3324    7.3439    0.0000 H       1  UNL1        0.0280
     87 H           3.2884    6.4682    0.0000 H       1  UNL1        0.0280
     88 H           4.5981   -6.3040    0.0000 H       1  UNL1        0.0648
     89 H           4.2690   -3.8740    0.0000 H       1  UNL1        0.0647
     90 H           3.7320   -5.1840    0.0000 H       1  UNL1        0.0647
     91 H           6.8671   -6.6140    0.0000 H       1  UNL1        0.2101
     92 H           3.8015   -3.5191    0.0000 H       1  UNL1        0.0584
     93 H           3.0044   -3.5191    0.0000 H       1  UNL1        0.0584
     94 H           4.5981   -7.3040    0.0000 H       1  UNL1        0.2100
     95 H           3.4030   -6.6140    0.0000 H       1  UNL1        0.2100
     96 H           2.0000   -4.1840    0.0000 H       1  UNL1        0.2095
@<TRIPOS>BOND
     1    22     1    1
     2     1    76    1
     3    25     2    1
     4     2    79    1
     5     3    29    1
     6     3    36    1
     7    31     4    1
     8    35     4    1
     9     5    35    1
    10     5    42    1
    11     6    36    2
    12    39     7    1
    13     7    91    1
    14    41     8    1
    15     8    94    1
    16    43     9    1
    17     9    95    1
    18    10    44    1
    19    10    96    1
    20    11    12    1
    21    11    15    1
    22    11    16    1
    23    11    23    1
    24    12    13    1
    25    12    18    1
    26    12    45    1
    27    13    14    1
    28    13    21    1
    29    13    46    1
    30    14    17    1
    31    14    19    1
    32    14    47    1
    33    15    20    1
    34    15    22    1
    35    15    48    1
    36    16    19    1
    37    16    49    1
    38    16    50    1
    39    17    24    1
    40    17    25    1
    41    17    27    1
    42    18    20    1
    43    18    51    1
    44    18    52    1
    45    19    53    1
    46    19    54    1
    47    20    55    1
    48    20    56    1
    49    21    26    1
    50    21    57    1
    51    21    58    1
    52    22    29    1
    53    22    32    1
    54    23    59    1
    55    23    60    1
    56    23    61    1
    57    24    26    2
    58    24    28    1
    59    25    30    1
    60    25    62    1
    61    26    63    1
    62    27    64    1
    63    27    65    1
    64    27    66    1
    65    28    31    1
    66    28    67    1
    67    28    68    1
    68    29    33    1
    69    29    69    1
    70    30    31    1
    71    30    70    1
    72    30    71    1
    73    31    72    1
    74    32    73    1
    75    32    74    1
    76    32    75    1
    77    33    34    1
    78    33    77    1
    79    33    78    1
    80    34    37    2
    81    34    38    1
    82    35    39    1
    83    35    80    1
    84    36    37    1
    85    37    40    1
    86    38    81    1
    87    38    82    1
    88    38    83    1
    89    39    41    1
    90    39    84    1
    91    40    85    1
    92    40    86    1
    93    40    87    1
    94    41    43    1
    95    41    88    1
    96    42    43    1
    97    42    44    1
    98    42    89    1
    99    43    90    1
   100    44    92    1
   101    44    93    1
