@<TRIPOS>MOLECULE
IMPHY013293
 30 29 0 0 0
SMALL
GASTEIGER

@<TRIPOS>ATOM
      1 O           7.1962    1.9400    0.0000 O.3     1  UNL1       -0.3638
      2 O           6.3301    0.4400    0.0000 O.3     1  UNL1       -0.3638
      3 C           4.5981    0.4400    0.0000 C.3     1  UNL1       -0.0284
      4 C           3.7320   -0.0600    0.0000 C.3     1  UNL1       -0.0308
      5 C           4.5981    1.4400    0.0000 C.2     1  UNL1       -0.0716
      6 C           3.7320   -1.0600    0.0000 C.2     1  UNL1       -0.0850
      7 C           2.8660   -1.5600    0.0000 C.2     1  UNL1       -0.0796
      8 C           5.4641    1.9400    0.0000 C.2     1  UNL1       -0.0302
      9 C           3.7320    1.9400    0.0000 C.3     1  UNL1       -0.0436
     10 C           6.3301    1.4400    0.0000 C.3     1  UNL1        0.1732
     11 C           2.8660   -2.5600    0.0000 C.3     1  UNL1       -0.0440
     12 C           2.0000   -1.0600    0.0000 C.3     1  UNL1       -0.0440
     13 H           4.8101   -0.1426    0.0000 H       1  UNL1        0.0313
     14 H           5.2087    0.5477    0.0000 H       1  UNL1        0.0313
     15 H           3.5200    0.5226    0.0000 H       1  UNL1        0.0310
     16 H           3.1215   -0.1677    0.0000 H       1  UNL1        0.0310
     17 H           4.2690   -1.3700    0.0000 H       1  UNL1        0.0572
     18 H           5.4641    2.5600    0.0000 H       1  UNL1        0.0621
     19 H           4.0420    2.4769    0.0000 H       1  UNL1        0.0274
     20 H           3.1951    2.2500    0.0000 H       1  UNL1        0.0274
     21 H           3.4220    1.4031    0.0000 H       1  UNL1        0.0274
     22 H           6.8671    1.1300    0.0000 H       1  UNL1        0.0954
     23 H           2.2460   -2.5600    0.0000 H       1  UNL1        0.0274
     24 H           2.8660   -3.1800    0.0000 H       1  UNL1        0.0274
     25 H           3.4860   -2.5600    0.0000 H       1  UNL1        0.0274
     26 H           2.3100   -0.5231    0.0000 H       1  UNL1        0.0274
     27 H           1.4631   -0.7500    0.0000 H       1  UNL1        0.0274
     28 H           1.6900   -1.5969    0.0000 H       1  UNL1        0.0274
     29 H           7.7331    1.6300    0.0000 H       1  UNL1        0.2128
     30 H           6.8671    0.1300    0.0000 H       1  UNL1        0.2128
@<TRIPOS>BOND
     1     1    10    1
     2     1    29    1
     3     2    10    1
     4     2    30    1
     5     3     4    1
     6     3     5    1
     7     3    13    1
     8     3    14    1
     9     4     6    1
    10     4    15    1
    11     4    16    1
    12     5     8    2
    13     5     9    1
    14     6     7    2
    15     6    17    1
    16     7    11    1
    17     7    12    1
    18     8    10    1
    19     8    18    1
    20     9    19    1
    21     9    20    1
    22     9    21    1
    23    10    22    1
    24    11    23    1
    25    11    24    1
    26    11    25    1
    27    12    26    1
    28    12    27    1
    29    12    28    1
