@<TRIPOS>MOLECULE
IMPHY015344
 14 13 0 0 0
SMALL
GASTEIGER

@<TRIPOS>ATOM
      1 O           5.4641    0.7500    0.0000 O.2     1  UNL1       -0.2963
      2 C           2.8660    0.2500    0.0000 C.2     1  UNL1       -0.0727
      3 C           2.0000    0.7500    0.0000 C.3     1  UNL1       -0.0437
      4 C           2.8660   -0.7500    0.0000 C.3     1  UNL1       -0.0437
      5 C           3.7320    0.7500    0.0000 C.2     1  UNL1       -0.0237
      6 C           4.5981    0.2500    0.0000 C.2     1  UNL1        0.1430
      7 H           2.3100    1.2869    0.0000 H       1  UNL1        0.0274
      8 H           1.4631    1.0600    0.0000 H       1  UNL1        0.0274
      9 H           1.6900    0.2131    0.0000 H       1  UNL1        0.0274
     10 H           2.2460   -0.7500    0.0000 H       1  UNL1        0.0274
     11 H           2.8660   -1.3700    0.0000 H       1  UNL1        0.0274
     12 H           3.4860   -0.7500    0.0000 H       1  UNL1        0.0274
     13 H           3.7320    1.3700    0.0000 H       1  UNL1        0.0649
     14 H           4.5981   -0.3700    0.0000 H       1  UNL1        0.1075
@<TRIPOS>BOND
     1     1     6    2
     2     2     3    1
     3     2     4    1
     4     2     5    2
     5     3     7    1
     6     3     8    1
     7     3     9    1
     8     4    10    1
     9     4    11    1
    10     4    12    1
    11     5     6    1
    12     5    13    1
    13     6    14    1
