@<TRIPOS>MOLECULE
IMPHY000204
 71 77 0 0 0
SMALL
GASTEIGER

@<TRIPOS>ATOM
      1 O           5.6547   -0.8321    0.0000 O.3     1  UNL1       -0.4575
      2 O           8.8417    0.2035    0.0000 O.3     1  UNL1       -0.4646
      3 O           9.2018    1.8977    0.0000 O.2     1  UNL1       -0.2453
      4 O           6.9418   -1.9910    0.0000 O.2     1  UNL1       -0.2449
      5 O           5.0358   -5.2094    0.0000 O.3     1  UNL1       -0.4524
      6 O           3.4615   -4.8748    0.0000 O.3     1  UNL1       -0.4489
      7 O           2.6691   -2.8536    0.0000 O.3     1  UNL1       -0.4913
      8 N           4.8116    1.9454    0.0000 N.3     1  UNL1       -0.2975
      9 N           7.8911    2.9460    0.0000 N.pl3   1  UNL1       -0.3164
     10 C           5.7259    1.7511    0.0000 C.3     1  UNL1        0.0346
     11 C           6.3514    2.4457    0.0000 C.3     1  UNL1        0.0531
     12 C           6.0148    0.8621    0.0000 C.3     1  UNL1        0.0285
     13 C           5.9663    3.4813    0.0000 C.3     1  UNL1       -0.0238
     14 C           5.3893    0.1675    0.0000 C.3     1  UNL1       -0.0411
     15 C           6.9291    0.6678    0.0000 C.3     1  UNL1       -0.0089
     16 C           4.5228    2.8344    0.0000 C.3     1  UNL1        0.0004
     17 C           7.2657    2.2514    0.0000 C.2     1  UNL1        0.0304
     18 C           6.3238   -0.0889    0.0000 C.3     1  UNL1        0.1080
     19 C           4.1862    1.2508    0.0000 C.3     1  UNL1       -0.0007
     20 C           6.6880    4.0293    0.0000 C.ar    1  UNL1       -0.0130
     21 C           4.4750    0.3618    0.0000 C.3     1  UNL1       -0.0395
     22 C           7.5545    1.3624    0.0000 C.2     1  UNL1        0.0551
     23 C           7.6023    3.8350    0.0000 C.ar    1  UNL1        0.0353
     24 C           7.3019   -0.2968    0.0000 C.3     1  UNL1       -0.0271
     25 C           6.3991    4.9183    0.0000 C.ar    1  UNL1       -0.0559
     26 C           8.5327    1.1545    0.0000 C.2     1  UNL1        0.3364
     27 C           8.2277    4.5296    0.0000 C.ar    1  UNL1       -0.0403
     28 C           7.0246    5.6129    0.0000 C.ar    1  UNL1       -0.0614
     29 C           7.9389    5.4186    0.0000 C.ar    1  UNL1       -0.0600
     30 C           5.9637   -1.7831    0.0000 C.2     1  UNL1        0.3397
     31 C           5.2946   -2.5263    0.0000 C.ar    1  UNL1        0.0661
     32 C           9.8198   -0.0045    0.0000 C.3     1  UNL1        0.0820
     33 C           5.6036   -3.4773    0.0000 C.ar    1  UNL1       -0.0019
     34 C           4.3164   -2.3184    0.0000 C.ar    1  UNL1       -0.0021
     35 C           4.9344   -4.2205    0.0000 C.ar    1  UNL1        0.1707
     36 C           3.6473   -3.0615    0.0000 C.ar    1  UNL1        0.1661
     37 C           3.9563   -4.0126    0.0000 C.ar    1  UNL1        0.2076
     38 C           4.1273   -5.6129    0.0000 C.3     1  UNL1        0.2334
     39 C           2.0000   -3.5967    0.0000 C.3     1  UNL1        0.0790
     40 H           5.4633    2.5595    0.0000 H       1  UNL1        0.0482
     41 H           6.5426    3.7100    0.0000 H       1  UNL1        0.0290
     42 H           5.7251    4.0525    0.0000 H       1  UNL1        0.0290
     43 H           5.1571   -0.4074    0.0000 H       1  UNL1        0.0273
     44 H           5.9151   -0.1610    0.0000 H       1  UNL1        0.0273
     45 H           6.6968    0.0929    0.0000 H       1  UNL1        0.0323
     46 H           7.4549    0.3392    0.0000 H       1  UNL1        0.0323
     47 H           4.2896    3.4089    0.0000 H       1  UNL1        0.0427
     48 H           3.9404    2.6219    0.0000 H       1  UNL1        0.0427
     49 H           6.5154   -0.6786    0.0000 H       1  UNL1        0.0737
     50 H           3.8045    1.7394    0.0000 H       1  UNL1        0.0427
     51 H           3.6388    0.9597    0.0000 H       1  UNL1        0.0427
     52 H           3.8611    0.2756    0.0000 H       1  UNL1        0.0278
     53 H           4.4534   -0.2578    0.0000 H       1  UNL1        0.0278
     54 H           8.4976    2.8171    0.0000 H       1  UNL1        0.1519
     55 H           7.1730   -0.9033    0.0000 H       1  UNL1        0.0265
     56 H           7.9084   -0.4257    0.0000 H       1  UNL1        0.0265
     57 H           7.4308    0.3096    0.0000 H       1  UNL1        0.0265
     58 H           5.7927    5.0472    0.0000 H       1  UNL1        0.0621
     59 H           8.8342    4.4007    0.0000 H       1  UNL1        0.0636
     60 H           6.8330    6.2026    0.0000 H       1  UNL1        0.0618
     61 H           8.3538    5.8793    0.0000 H       1  UNL1        0.0618
     62 H           9.6909   -0.6109    0.0000 H       1  UNL1        0.0661
     63 H          10.4263   -0.1334    0.0000 H       1  UNL1        0.0661
     64 H           9.9487    0.6020    0.0000 H       1  UNL1        0.0661
     65 H           6.2100   -3.6062    0.0000 H       1  UNL1        0.0663
     66 H           4.1248   -1.7287    0.0000 H       1  UNL1        0.0663
     67 H           3.6258   -5.9775    0.0000 H       1  UNL1        0.1166
     68 H           4.4372   -6.1499    0.0000 H       1  UNL1        0.1166
     69 H           1.5392   -3.1819    0.0000 H       1  UNL1        0.0660
     70 H           1.5851   -4.0575    0.0000 H       1  UNL1        0.0660
     71 H           2.4608   -4.0116    0.0000 H       1  UNL1        0.0660
@<TRIPOS>BOND
     1    18     1    1
     2     1    30    1
     3     2    26    1
     4     2    32    1
     5     3    26    2
     6     4    30    2
     7     5    35    1
     8     5    38    1
     9     6    37    1
    10     6    38    1
    11     7    36    1
    12     7    39    1
    13     8    10    1
    14     8    16    1
    15     8    19    1
    16     9    17    1
    17     9    23    1
    18     9    54    1
    19    10    11    1
    20    10    12    1
    21    10    40    1
    22    11    13    1
    23    11    17    1
    24    11    20    1
    25    12    14    1
    26    12    15    1
    27    12    18    1
    28    13    16    1
    29    13    41    1
    30    13    42    1
    31    14    21    1
    32    14    43    1
    33    14    44    1
    34    15    22    1
    35    15    45    1
    36    15    46    1
    37    16    47    1
    38    16    48    1
    39    17    22    2
    40    18    24    1
    41    18    49    1
    42    19    21    1
    43    19    50    1
    44    19    51    1
    45    20    23   ar
    46    20    25   ar
    47    21    52    1
    48    21    53    1
    49    22    26    1
    50    23    27   ar
    51    24    55    1
    52    24    56    1
    53    24    57    1
    54    25    28   ar
    55    25    58    1
    56    27    29   ar
    57    27    59    1
    58    28    29   ar
    59    28    60    1
    60    29    61    1
    61    30    31    1
    62    31    33   ar
    63    31    34   ar
    64    32    62    1
    65    32    63    1
    66    32    64    1
    67    33    35   ar
    68    33    65    1
    69    34    36   ar
    70    34    66    1
    71    35    37   ar
    72    36    37   ar
    73    38    67    1
    74    38    68    1
    75    39    69    1
    76    39    70    1
    77    39    71    1
