@<TRIPOS>MOLECULE
IMPHY012943
 155 159 0 0 0
SMALL
GASTEIGER

@<TRIPOS>ATOM
      1 O          18.9223    8.0728    0.0000 O.3     1  UNL1       -0.3367
      2 O          14.3209    9.2242    0.0000 O.3     1  UNL1       -0.3420
      3 O          23.5524    2.2991    0.0000 O.3     1  UNL1       -0.3377
      4 O          21.6741    4.2543    0.0000 O.3     1  UNL1       -0.3405
      5 O          11.0956    8.1116    0.0000 O.3     1  UNL1       -0.3391
      6 O           6.5857    7.6420    0.0000 O.3     1  UNL1       -0.4547
      7 O          12.6537   10.7305    0.0000 O.3     1  UNL1       -0.4521
      8 O          22.9267   -3.7189    0.0000 O.3     1  UNL1       -0.3431
      9 O           9.3636    8.1116    0.0000 O.3     1  UNL1       -0.3420
     10 O          22.5431   -7.1476    0.0000 O.3     1  UNL1       -0.3454
     11 O          19.7972    6.5947    0.0000 O.3     1  UNL1       -0.3864
     12 O          19.0716    4.7310    0.0000 O.3     1  UNL1       -0.3865
     13 O          22.6871   -0.2766    0.0000 O.3     1  UNL1       -0.3864
     14 O          21.6354   -1.4725    0.0000 O.3     1  UNL1       -0.3866
     15 O          11.0956    6.1116    0.0000 O.3     1  UNL1       -0.3841
     16 O           7.6315    6.1116    0.0000 O.3     1  UNL1       -0.4528
     17 O           9.3636    5.1116    0.0000 O.3     1  UNL1       -0.3853
     18 O          20.9484    2.3906    0.0000 O.3     1  UNL1       -0.3924
     19 O          14.3847   10.7909    0.0000 O.2     1  UNL1       -0.2505
     20 O           3.4544    5.9731    0.0000 O.2     1  UNL1       -0.2508
     21 O           8.4976    4.6116    0.0000 O.2     1  UNL1       -0.2453
     22 C          21.4113    5.9663    0.0000 C.3     1  UNL1        0.1407
     23 C          11.0956    9.1116    0.0000 C.3     1  UNL1        0.1281
     24 C           9.4820    9.1398    0.0000 C.3     1  UNL1        0.1729
     25 C          12.6886    9.7311    0.0000 C.3     1  UNL1        0.1926
     26 C          15.9286    9.3649    0.0000 C.3     1  UNL1        0.2008
     27 C          22.0369    5.1862    0.0000 C.3     1  UNL1        0.1889
     28 C          20.4228    5.8146    0.0000 C.3     1  UNL1        0.1144
     29 C          12.7092    9.1398    0.0000 C.3     1  UNL1        0.0888
     30 C          20.0600    4.8827    0.0000 C.3     1  UNL1        0.1119
     31 C          24.1633   -0.9038    0.0000 C.3     1  UNL1        0.1406
     32 C          20.6856    4.1026    0.0000 C.3     1  UNL1        0.1130
     33 C          23.2030   -1.1333    0.0000 C.3     1  UNL1        0.1143
     34 C          23.8169   -4.1460    0.0000 C.3     1  UNL1        0.1885
     35 C          22.5510   -1.8747    0.0000 C.3     1  UNL1        0.1095
     36 C          10.2296    7.6116    0.0000 C.3     1  UNL1        0.1885
     37 C          22.4461   -2.8564    0.0000 C.3     1  UNL1        0.0873
     38 C          10.2296    6.6116    0.0000 C.3     1  UNL1        0.1352
     39 C           9.3636    6.1116    0.0000 C.3     1  UNL1        0.1250
     40 C          12.7441    8.1404    0.0000 C.3     1  UNL1       -0.0360
     41 C           8.4976    6.6116    0.0000 C.3     1  UNL1        0.1574
     42 C           8.4976    7.6116    0.0000 C.3     1  UNL1        0.0984
     43 C          20.3228    3.1707    0.0000 C.3     1  UNL1        0.0730
     44 C          20.4519   -9.6494    0.0000 C.3     1  UNL1        0.0618
     45 C          21.4662   -3.0561    0.0000 C.3     1  UNL1       -0.0361
     46 C          17.7239  -11.4353    0.0000 C.3     1  UNL1       -0.0265
     47 C          21.1166  -10.3965    0.0000 C.3     1  UNL1       -0.0265
     48 C          13.5017   11.2604    0.0000 C.2     1  UNL1        0.3105
     49 C           7.6315    8.1116    0.0000 C.3     1  UNL1       -0.0350
     50 C           4.2498    5.3670    0.0000 C.2     1  UNL1        0.3075
     51 C          14.5945  -12.3513    0.0000 C.3     1  UNL1       -0.0507
     52 C          13.4668   12.2598    0.0000 C.3     1  UNL1        0.0534
     53 C          20.8020  -11.3457    0.0000 C.3     1  UNL1       -0.0507
     54 C           2.6759    2.5114    0.0000 C.3     1  UNL1        0.0450
     55 C          11.3340  -12.3181    0.0000 C.3     1  UNL1       -0.0530
     56 C           2.0000   -0.6785    0.0000 C.3     1  UNL1       -0.0430
     57 C           8.2239  -11.3387    0.0000 C.3     1  UNL1       -0.0531
     58 C           2.2804   -3.9271    0.0000 C.3     1  UNL1       -0.0526
     59 C          21.4667  -12.0928    0.0000 C.3     1  UNL1       -0.0532
     60 C          14.3149   12.7897    0.0000 C.3     1  UNL1       -0.0432
     61 C           5.5328   -9.4977    0.0000 C.3     1  UNL1       -0.0531
     62 C           3.4929   -6.9539    0.0000 C.3     1  UNL1       -0.0530
     63 C          12.5839   12.7292    0.0000 C.3     1  UNL1       -0.0523
     64 C           7.6315    5.1116    0.0000 C.2     1  UNL1        0.3350
     65 C          21.1520  -13.0420    0.0000 C.3     1  UNL1       -0.0559
     66 C          14.2800   13.7891    0.0000 C.3     1  UNL1       -0.0645
     67 C           6.7655    4.6116    0.0000 C.2     1  UNL1        0.0293
     68 C          21.8167  -13.7891    0.0000 C.3     1  UNL1       -0.0653
     69 C           5.8995    5.1116    0.0000 C.3     1  UNL1       -0.0333
     70 C           6.7655    3.6116    0.0000 C.2     1  UNL1       -0.0774
     71 C           5.8995    3.1116    0.0000 C.3     1  UNL1       -0.0461
     72 H          21.8554    6.3989    0.0000 H       1  UNL1        0.0675
     73 H          11.5378    8.6770    0.0000 H       1  UNL1        0.0661
     74 H           9.2812    9.7263    0.0000 H       1  UNL1        0.0801
     75 H          13.1437   10.1521    0.0000 H       1  UNL1        0.0824
     76 H          16.0880    9.9640    0.0000 H       1  UNL1        0.0950
     77 H          22.0716    4.5671    0.0000 H       1  UNL1        0.0938
     78 H          19.8100    5.7205    0.0000 H       1  UNL1        0.0648
     79 H          13.1664    8.7209    0.0000 H       1  UNL1        0.0621
     80 H          19.8351    4.3050    0.0000 H       1  UNL1        0.0647
     81 H          24.7828   -0.8784    0.0000 H       1  UNL1        0.0675
     82 H          21.0735    3.6189    0.0000 H       1  UNL1        0.0647
     83 H          23.4428   -0.5615    0.0000 H       1  UNL1        0.0648
     84 H          23.2369   -4.3650    0.0000 H       1  UNL1        0.0938
     85 H          22.4170   -1.2694    0.0000 H       1  UNL1        0.0646
     86 H          10.2296    8.2316    0.0000 H       1  UNL1        0.0938
     87 H          22.1872   -3.4198    0.0000 H       1  UNL1        0.0621
     88 H          10.2296    5.9916    0.0000 H       1  UNL1        0.0671
     89 H           8.8266    5.8016    0.0000 H       1  UNL1        0.0659
     90 H          12.1245    8.1187    0.0000 H       1  UNL1        0.0255
     91 H          12.7658    7.5207    0.0000 H       1  UNL1        0.0255
     92 H          13.3638    8.1620    0.0000 H       1  UNL1        0.0255
     93 H           7.9606    6.9216    0.0000 H       1  UNL1        0.0787
     94 H           8.4976    8.2316    0.0000 H       1  UNL1        0.0632
     95 H          19.7929    3.4926    0.0000 H       1  UNL1        0.0584
     96 H          19.9138    2.7048    0.0000 H       1  UNL1        0.0584
     97 H          21.0719   -9.6398    0.0000 H       1  UNL1        0.0597
     98 H          20.0222    7.1725    0.0000 H       1  UNL1        0.2100
     99 H          18.8467    4.1532    0.0000 H       1  UNL1        0.2100
    100 H          21.3424   -2.4486    0.0000 H       1  UNL1        0.0255
    101 H          20.8587   -3.1799    0.0000 H       1  UNL1        0.0255
    102 H          21.5900   -3.6636    0.0000 H       1  UNL1        0.0255
    103 H          17.6370  -12.0492    0.0000 H       1  UNL1        0.0290
    104 H          17.4642  -10.8723    0.0000 H       1  UNL1        0.0290
    105 H          21.6623  -10.6908    0.0000 H       1  UNL1        0.0290
    106 H          21.5012   -9.9102    0.0000 H       1  UNL1        0.0290
    107 H          22.9872    0.2659    0.0000 H       1  UNL1        0.2100
    108 H           7.9415    8.6485    0.0000 H       1  UNL1        0.0256
    109 H           7.0946    8.4216    0.0000 H       1  UNL1        0.0256
    110 H           7.3215    7.5746    0.0000 H       1  UNL1        0.0256
    111 H          21.1356   -1.8395    0.0000 H       1  UNL1        0.2100
    112 H          14.3330  -12.9134    0.0000 H       1  UNL1        0.0266
    113 H          14.5097  -11.7371    0.0000 H       1  UNL1        0.0266
    114 H          11.6326    6.4216    0.0000 H       1  UNL1        0.2101
    115 H          13.4452   12.8794    0.0000 H       1  UNL1        0.0410
    116 H          20.2563  -11.0513    0.0000 H       1  UNL1        0.0266
    117 H          20.4174  -11.8320    0.0000 H       1  UNL1        0.0266
    118 H           2.3048    3.0080    0.0000 H       1  UNL1        0.0377
    119 H           3.2570    2.2951    0.0000 H       1  UNL1        0.0377
    120 H           9.9005    4.8016    0.0000 H       1  UNL1        0.2101
    121 H          10.9204  -12.7800    0.0000 H       1  UNL1        0.0265
    122 H          11.4313  -11.7058    0.0000 H       1  UNL1        0.0265
    123 H          20.7235    1.8128    0.0000 H       1  UNL1        0.2095
    124 H           1.5005   -0.3112    0.0000 H       1  UNL1        0.0270
    125 H           2.6188   -0.7165    0.0000 H       1  UNL1        0.0270
    126 H           7.6939  -11.6604    0.0000 H       1  UNL1        0.0265
    127 H           8.4950  -10.7811    0.0000 H       1  UNL1        0.0265
    128 H           1.6957   -3.7208    0.0000 H       1  UNL1        0.0265
    129 H           2.8836   -3.7836    0.0000 H       1  UNL1        0.0265
    130 H          22.0124  -12.3871    0.0000 H       1  UNL1        0.0265
    131 H          21.8513  -11.6065    0.0000 H       1  UNL1        0.0265
    132 H          14.5471   12.2148    0.0000 H       1  UNL1        0.0270
    133 H          14.9213   12.9186    0.0000 H       1  UNL1        0.0270
    134 H           4.9321   -9.6514    0.0000 H       1  UNL1        0.0265
    135 H           5.9542   -9.0429    0.0000 H       1  UNL1        0.0265
    136 H           2.8735   -6.9264    0.0000 H       1  UNL1        0.0265
    137 H           4.0283   -6.6413    0.0000 H       1  UNL1        0.0265
    138 H          12.8750   13.2767    0.0000 H       1  UNL1        0.0238
    139 H          12.0365   13.0203    0.0000 H       1  UNL1        0.0238
    140 H          12.2928   12.1818    0.0000 H       1  UNL1        0.0238
    141 H          20.6063  -12.7477    0.0000 H       1  UNL1        0.0263
    142 H          20.7674  -13.5283    0.0000 H       1  UNL1        0.0263
    143 H          14.8996   13.8107    0.0000 H       1  UNL1        0.0230
    144 H          14.2584   14.4087    0.0000 H       1  UNL1        0.0230
    145 H          13.6604   13.7674    0.0000 H       1  UNL1        0.0230
    146 H          21.3535  -14.2012    0.0000 H       1  UNL1        0.0230
    147 H          22.2288  -14.2523    0.0000 H       1  UNL1        0.0230
    148 H          22.2799  -13.3770    0.0000 H       1  UNL1        0.0230
    149 H           6.2095    5.6485    0.0000 H       1  UNL1        0.0280
    150 H           5.3625    5.4216    0.0000 H       1  UNL1        0.0280
    151 H           5.5895    4.5746    0.0000 H       1  UNL1        0.0280
    152 H           7.3024    3.3016    0.0000 H       1  UNL1        0.0574
    153 H           5.5895    3.6485    0.0000 H       1  UNL1        0.0272
    154 H           5.3625    2.8016    0.0000 H       1  UNL1        0.0272
    155 H           6.2095    2.5746    0.0000 H       1  UNL1        0.0272
@<TRIPOS>BOND
     1     1    22    1
     2     1    26    1
     3     2    26    1
     4     2    29    1
     5     3    27    1
     6     3    31    1
     7     4    27    1
     8     4    32    1
     9     5    23    1
    10     5    36    1
    11     6    24    1
    12     6    50    1
    13     7    25    1
    14     7    48    1
    15     8    34    1
    16     8    37    1
    17     9    36    1
    18     9    42    1
    19    10    34    1
    20    10    44    1
    21    11    28    1
    22    11    98    1
    23    12    30    1
    24    12    99    1
    25    13    33    1
    26    13   107    1
    27    14    35    1
    28    14   111    1
    29    15    38    1
    30    15   114    1
    31    16    41    1
    32    16    64    1
    33    17    39    1
    34    17   120    1
    35    18    43    1
    36    18   123    1
    37    19    48    2
    38    20    50    2
    39    21    64    2
    40    22    27    1
    41    22    28    1
    42    22    72    1
    43    23    24    1
    44    23    29    1
    45    23    73    1
    46    24    25    1
    47    24    74    1
    48    25    26    1
    49    25    75    1
    50    26    76    1
    51    27    77    1
    52    28    30    1
    53    28    78    1
    54    29    40    1
    55    29    79    1
    56    30    32    1
    57    30    80    1
    58    31    33    1
    59    31    34    1
    60    31    81    1
    61    32    43    1
    62    32    82    1
    63    33    35    1
    64    33    83    1
    65    34    84    1
    66    35    37    1
    67    35    85    1
    68    36    38    1
    69    36    86    1
    70    37    45    1
    71    37    87    1
    72    38    39    1
    73    38    88    1
    74    39    41    1
    75    39    89    1
    76    40    90    1
    77    40    91    1
    78    40    92    1
    79    41    42    1
    80    41    93    1
    81    42    49    1
    82    42    94    1
    83    43    95    1
    84    43    96    1
    85    44    46    1
    86    44    47    1
    87    44    97    1
    88    45   100    1
    89    45   101    1
    90    45   102    1
    91    46    51    1
    92    46   103    1
    93    46   104    1
    94    47    53    1
    95    47   105    1
    96    47   106    1
    97    48    52    1
    98    49   108    1
    99    49   109    1
   100    49   110    1
   101    50    54    1
   102    51    55    1
   103    51   112    1
   104    51   113    1
   105    52    60    1
   106    52    63    1
   107    52   115    1
   108    53    59    1
   109    53   116    1
   110    53   117    1
   111    54    56    1
   112    54   118    1
   113    54   119    1
   114    55    57    1
   115    55   121    1
   116    55   122    1
   117    56    58    1
   118    56   124    1
   119    56   125    1
   120    57    61    1
   121    57   126    1
   122    57   127    1
   123    58    62    1
   124    58   128    1
   125    58   129    1
   126    59    65    1
   127    59   130    1
   128    59   131    1
   129    60    66    1
   130    60   132    1
   131    60   133    1
   132    61    62    1
   133    61   134    1
   134    61   135    1
   135    62   136    1
   136    62   137    1
   137    63   138    1
   138    63   139    1
   139    63   140    1
   140    64    67    1
   141    65    68    1
   142    65   141    1
   143    65   142    1
   144    66   143    1
   145    66   144    1
   146    66   145    1
   147    67    69    1
   148    67    70    2
   149    68   146    1
   150    68   147    1
   151    68   148    1
   152    69   149    1
   153    69   150    1
   154    69   151    1
   155    70    71    1
   156    70   152    1
   157    71   153    1
   158    71   154    1
   159    71   155    1
