@<TRIPOS>MOLECULE
IMPHY008836
 30 32 0 0 0
SMALL
GASTEIGER

@<TRIPOS>ATOM
      1 O           5.4641   -1.2500    0.0000 O.3     1  UNL1       -0.3257
      2 O           7.1962   -0.2500    0.0000 O.3     1  UNL1       -0.3259
      3 O           8.0622    1.2500    0.0000 O.3     1  UNL1       -0.3257
      4 O           3.7321   -1.2500    0.0000 O.3     1  UNL1       -0.3282
      5 O           7.1962   -3.2500    0.0000 O.3     1  UNL1       -0.2176
      6 O           5.4641   -4.2500    0.0000 O.3     1  UNL1       -0.2174
      7 O           3.7321   -3.2500    0.0000 O.3     1  UNL1       -0.2149
      8 O           8.9282   -1.2500    0.0000 O.3     1  UNL1       -0.2149
      9 O          10.6603   -0.2500    0.0000 O.3     1  UNL1       -0.2174
     10 O          10.6603    1.7500    0.0000 O.3     1  UNL1       -0.2176
     11 O           2.8660    4.2500    0.0000 O.3     1  UNL1       -0.2866
     12 C           6.3301   -1.7500    0.0000 C.3     1  UNL1        0.1802
     13 C           6.3301   -2.7500    0.0000 C.3     1  UNL1        0.2143
     14 C           5.4641   -3.2500    0.0000 C.3     1  UNL1        0.2198
     15 C           4.5981   -2.7500    0.0000 C.3     1  UNL1        0.2406
     16 C           4.5981   -1.7500    0.0000 C.3     1  UNL1        0.2695
     17 C           7.1962   -1.2500    0.0000 C.3     1  UNL1        0.1770
     18 C           8.0622    0.2500    0.0000 C.3     1  UNL1        0.2695
     19 C           8.9282   -0.2500    0.0000 C.3     1  UNL1        0.2406
     20 C           9.7942    0.2500    0.0000 C.3     1  UNL1        0.2198
     21 C           9.7942    1.2500    0.0000 C.3     1  UNL1        0.2143
     22 C           8.9282    1.7500    0.0000 C.3     1  UNL1        0.1803
     23 C           3.7321   -0.2500    0.0000 C.3     1  UNL1        0.1495
     24 C           2.8660    0.2500    0.0000 C.3     1  UNL1        0.0585
     25 C           2.8660    1.2500    0.0000 C.ar    1  UNL1       -0.0195
     26 C           2.0000    1.7500    0.0000 C.ar    1  UNL1       -0.0009
     27 C           3.7321    1.7500    0.0000 C.ar    1  UNL1       -0.0009
     28 C           2.0000    2.7500    0.0000 C.ar    1  UNL1        0.0417
     29 C           3.7321    2.7500    0.0000 C.ar    1  UNL1        0.0417
     30 C           2.8660    3.2500    0.0000 C.ar    1  UNL1        0.1957
@<TRIPOS>BOND
     1     1    12    1
     2     1    16    1
     3     2    17    1
     4     3    18    1
     5     3    22    1
     6     4    23    1
     7    11    30    1
     8    12    13    1
     9    12    17    1
    10    13     5    1
    11    13    14    1
    12    14     6    1
    13    14    15    1
    14    15     7    1
    15    15    16    1
    16    16     4    1
    17    18     2    1
    18    18    19    1
    19    19     8    1
    20    19    20    1
    21    20     9    1
    22    20    21    1
    23    21    10    1
    24    21    22    1
    25    23    24    1
    26    24    25    1
    27    25    26   ar
    28    25    27   ar
    29    26    28   ar
    30    27    29   ar
    31    28    30   ar
    32    29    30   ar
