@<TRIPOS>MOLECULE
IMPHY006536
 47 48 0 0 0
SMALL
GASTEIGER

@<TRIPOS>ATOM
      1 O           6.3301    1.4827    0.0000 O.3     1  UNL1       -0.4810
      2 O           8.0901    2.4480    0.0000 O.2     1  UNL1       -0.4183
      3 O           4.5981    2.4827    0.0000 O.3     1  UNL1       -0.5032
      4 O           9.8602    2.4585    0.0000 O.2     1  UNL1       -0.2452
      5 C           3.7320   -3.0173    0.0000 C.3     1  UNL1       -0.0504
      6 C           2.8660   -3.5173    0.0000 C.3     1  UNL1       -0.0467
      7 C           3.7320   -2.0173    0.0000 C.3     1  UNL1       -0.0491
      8 C           4.5981   -1.5173    0.0000 C.3     1  UNL1       -0.0319
      9 C           2.8660   -4.5173    0.0000 C.3     1  UNL1       -0.0627
     10 C           2.0000   -3.0173    0.0000 C.3     1  UNL1       -0.0627
     11 C           4.5981   -0.5173    0.0000 C.2     1  UNL1       -0.0734
     12 C           5.4641   -0.0173    0.0000 C.2     1  UNL1       -0.0481
     13 C           3.7320   -0.0173    0.0000 C.3     1  UNL1       -0.0437
     14 C           5.4641    0.9827    0.0000 C.3     1  UNL1        0.1084
     15 C           6.3301    2.4827    0.0000 C.ar    1  UNL1        0.2052
     16 C           7.1962    2.9827    0.0000 C.ar    1  UNL1        0.1841
     17 C           7.1962    3.9827    0.0000 C.ar    1  UNL1        0.0215
     18 C           5.4641    2.9827    0.0000 C.ar    1  UNL1        0.1622
     19 C           6.3301    4.4827    0.0000 C.ar    1  UNL1       -0.0474
     20 C           5.4641    3.9827    0.0000 C.ar    1  UNL1       -0.0157
     21 C           8.0901    4.5173    0.0000 C.ar    1  UNL1       -0.0442
     22 C           8.9962    4.0035    0.0000 C.ar    1  UNL1        0.0236
     23 C           8.9962    2.9618    0.0000 C.ar    1  UNL1        0.3373
     24 H           3.9441   -3.5999    0.0000 H       1  UNL1        0.0268
     25 H           4.3426   -2.9097    0.0000 H       1  UNL1        0.0268
     26 H           2.8660   -2.8973    0.0000 H       1  UNL1        0.0295
     27 H           3.5200   -1.4347    0.0000 H       1  UNL1        0.0268
     28 H           3.1215   -2.1250    0.0000 H       1  UNL1        0.0268
     29 H           4.8101   -2.0999    0.0000 H       1  UNL1        0.0310
     30 H           5.2087   -1.4097    0.0000 H       1  UNL1        0.0310
     31 H           2.3100   -2.4804    0.0000 H       1  UNL1        0.0232
     32 H           2.2460   -4.5173    0.0000 H       1  UNL1        0.0232
     33 H           2.8660   -5.1373    0.0000 H       1  UNL1        0.0232
     34 H           3.4860   -4.5173    0.0000 H       1  UNL1        0.0232
     35 H           1.4631   -2.7073    0.0000 H       1  UNL1        0.0232
     36 H           1.6900   -3.5543    0.0000 H       1  UNL1        0.0232
     37 H           6.0010   -0.3273    0.0000 H       1  UNL1        0.0605
     38 H           4.0420    0.5196    0.0000 H       1  UNL1        0.0274
     39 H           3.1951    0.2927    0.0000 H       1  UNL1        0.0274
     40 H           3.4220   -0.5543    0.0000 H       1  UNL1        0.0274
     41 H           5.2520    1.5653    0.0000 H       1  UNL1        0.0742
     42 H           4.8535    0.8750    0.0000 H       1  UNL1        0.0742
     43 H           6.3301    5.1027    0.0000 H       1  UNL1        0.0626
     44 H           4.9272    4.2927    0.0000 H       1  UNL1        0.0655
     45 H           8.0829    5.1373    0.0000 H       1  UNL1        0.0627
     46 H           9.5319    4.3156    0.0000 H       1  UNL1        0.0689
     47 H           4.0611    2.7927    0.0000 H       1  UNL1        0.2923
@<TRIPOS>BOND
     1     1    14    1
     2     1    15    1
     3     2    16   ar
     4     2    23   ar
     5     3    18    1
     6     3    47    1
     7     4    23    2
     8     5     6    1
     9     5     7    1
    10     5    24    1
    11     5    25    1
    12     6     9    1
    13     6    10    1
    14     6    26    1
    15     7     8    1
    16     7    27    1
    17     7    28    1
    18     8    11    1
    19     8    29    1
    20     8    30    1
    21     9    32    1
    22     9    33    1
    23     9    34    1
    24    10    31    1
    25    10    35    1
    26    10    36    1
    27    11    12    2
    28    11    13    1
    29    12    14    1
    30    12    37    1
    31    13    38    1
    32    13    39    1
    33    13    40    1
    34    14    41    1
    35    14    42    1
    36    15    16   ar
    37    15    18   ar
    38    16    17   ar
    39    17    19   ar
    40    17    21   ar
    41    18    20   ar
    42    19    20   ar
    43    19    43    1
    44    20    44    1
    45    21    22   ar
    46    21    45    1
    47    22    23   ar
    48    22    46    1
