@<TRIPOS>MOLECULE
IMPHY013316
 55 54 0 0 0
SMALL
GASTEIGER

@<TRIPOS>ATOM
      1 O           5.4641    1.2500    0.0000 O.3     1  UNL1       -0.3918
      2 O          13.2583   -1.2500    0.0000 O.3     1  UNL1       -0.3912
      3 O          15.8564    0.2500    0.0000 O.3     1  UNL1       -0.4679
      4 O          14.9904   -1.2500    0.0000 O.2     1  UNL1       -0.2508
      5 C           8.0622   -0.2500    0.0000 C.3     1  UNL1       -0.0530
      6 C           7.1962    0.2500    0.0000 C.3     1  UNL1       -0.0507
      7 C           8.9282    0.2500    0.0000 C.3     1  UNL1       -0.0531
      8 C           6.3301   -0.2500    0.0000 C.3     1  UNL1       -0.0269
      9 C           9.7942   -0.2500    0.0000 C.3     1  UNL1       -0.0531
     10 C           5.4641    0.2500    0.0000 C.3     1  UNL1        0.0553
     11 C          10.6603    0.2500    0.0000 C.3     1  UNL1       -0.0530
     12 C          11.5263   -0.2500    0.0000 C.3     1  UNL1       -0.0507
     13 C           4.5981   -0.2500    0.0000 C.3     1  UNL1       -0.0269
     14 C          12.3923    0.2500    0.0000 C.3     1  UNL1       -0.0263
     15 C           3.7320    0.2500    0.0000 C.3     1  UNL1       -0.0510
     16 C          13.2583   -0.2500    0.0000 C.3     1  UNL1        0.0653
     17 C           2.8660   -0.2500    0.0000 C.3     1  UNL1       -0.0558
     18 C          14.1244    0.2500    0.0000 C.3     1  UNL1        0.0708
     19 C           2.0000    0.2500    0.0000 C.3     1  UNL1       -0.0653
     20 C          14.9904   -0.2500    0.0000 C.2     1  UNL1        0.3093
     21 C          16.7224   -0.2500    0.0000 C.3     1  UNL1        0.0817
     22 H           7.6636   -0.7249    0.0000 H       1  UNL1        0.0265
     23 H           8.4607   -0.7249    0.0000 H       1  UNL1        0.0265
     24 H           7.5947    0.7249    0.0000 H       1  UNL1        0.0266
     25 H           6.7976    0.7249    0.0000 H       1  UNL1        0.0266
     26 H           9.3267    0.7249    0.0000 H       1  UNL1        0.0265
     27 H           8.5297    0.7249    0.0000 H       1  UNL1        0.0265
     28 H           5.9316   -0.7249    0.0000 H       1  UNL1        0.0290
     29 H           6.7287   -0.7249    0.0000 H       1  UNL1        0.0290
     30 H           9.3957   -0.7249    0.0000 H       1  UNL1        0.0265
     31 H          10.1928   -0.7249    0.0000 H       1  UNL1        0.0265
     32 H           6.0010    0.5600    0.0000 H       1  UNL1        0.0593
     33 H          11.0588    0.7249    0.0000 H       1  UNL1        0.0265
     34 H          10.2617    0.7249    0.0000 H       1  UNL1        0.0265
     35 H          11.1278   -0.7249    0.0000 H       1  UNL1        0.0266
     36 H          11.9248   -0.7249    0.0000 H       1  UNL1        0.0266
     37 H           4.1996   -0.7249    0.0000 H       1  UNL1        0.0290
     38 H           4.9966   -0.7249    0.0000 H       1  UNL1        0.0290
     39 H          12.7908    0.7249    0.0000 H       1  UNL1        0.0290
     40 H          11.9938    0.7249    0.0000 H       1  UNL1        0.0290
     41 H           4.1306    0.7249    0.0000 H       1  UNL1        0.0266
     42 H           3.3335    0.7249    0.0000 H       1  UNL1        0.0266
     43 H          13.7953   -0.5600    0.0000 H       1  UNL1        0.0598
     44 H           2.4675   -0.7249    0.0000 H       1  UNL1        0.0263
     45 H           3.2646   -0.7249    0.0000 H       1  UNL1        0.0263
     46 H          14.5229    0.7249    0.0000 H       1  UNL1        0.0403
     47 H          13.7258    0.7249    0.0000 H       1  UNL1        0.0403
     48 H           4.9272    1.5600    0.0000 H       1  UNL1        0.2098
     49 H           2.3100    0.7869    0.0000 H       1  UNL1        0.0230
     50 H           1.4631    0.5600    0.0000 H       1  UNL1        0.0230
     51 H           1.6900   -0.2869    0.0000 H       1  UNL1        0.0230
     52 H          12.7214   -1.5600    0.0000 H       1  UNL1        0.2098
     53 H          16.4124   -0.7869    0.0000 H       1  UNL1        0.0661
     54 H          17.2594   -0.5600    0.0000 H       1  UNL1        0.0661
     55 H          17.0324    0.2869    0.0000 H       1  UNL1        0.0661
@<TRIPOS>BOND
     1    10     1    1
     2     1    48    1
     3    16     2    1
     4     2    52    1
     5     3    20    1
     6     3    21    1
     7     4    20    2
     8     5     6    1
     9     5     7    1
    10     5    22    1
    11     5    23    1
    12     6     8    1
    13     6    24    1
    14     6    25    1
    15     7     9    1
    16     7    26    1
    17     7    27    1
    18     8    10    1
    19     8    28    1
    20     8    29    1
    21     9    11    1
    22     9    30    1
    23     9    31    1
    24    10    13    1
    25    10    32    1
    26    11    12    1
    27    11    33    1
    28    11    34    1
    29    12    14    1
    30    12    35    1
    31    12    36    1
    32    13    15    1
    33    13    37    1
    34    13    38    1
    35    14    16    1
    36    14    39    1
    37    14    40    1
    38    15    17    1
    39    15    41    1
    40    15    42    1
    41    16    18    1
    42    16    43    1
    43    17    19    1
    44    17    44    1
    45    17    45    1
    46    18    20    1
    47    18    46    1
    48    18    47    1
    49    19    49    1
    50    19    50    1
    51    19    51    1
    52    21    53    1
    53    21    54    1
    54    21    55    1
