@<TRIPOS>MOLECULE
IMPHY006597
 20 21 0 0 0
SMALL
GASTEIGER

@<TRIPOS>ATOM
      1 N           4.6660   -1.0000    0.0000 N.ar    1  UNL1       -0.2519
      2 C           3.8000    0.5000    0.0000 C.ar    1  UNL1        0.0004
      3 C           3.8000   -0.5000    0.0000 C.ar    1  UNL1        0.0713
      4 C           4.6660    1.0000    0.0000 C.ar    1  UNL1       -0.0509
      5 C           5.5321   -0.5000    0.0000 C.ar    1  UNL1        0.0389
      6 C           2.9061    1.0347    0.0000 C.ar    1  UNL1       -0.0526
      7 C           5.5321    0.5000    0.0000 C.ar    1  UNL1       -0.0401
      8 C           2.9061   -1.0347    0.0000 C.ar    1  UNL1       -0.0357
      9 C           2.0000    0.5208    0.0000 C.ar    1  UNL1       -0.0611
     10 C           2.0000   -0.5208    0.0000 C.ar    1  UNL1       -0.0597
     11 C           6.3981   -1.0000    0.0000 C.3     1  UNL1       -0.0223
     12 H           4.6660    1.6200    0.0000 H       1  UNL1        0.0625
     13 H           2.9132    1.6546    0.0000 H       1  UNL1        0.0624
     14 H           6.0690    0.8100    0.0000 H       1  UNL1        0.0636
     15 H           2.9132   -1.6546    0.0000 H       1  UNL1        0.0639
     16 H           1.4643    0.8329    0.0000 H       1  UNL1        0.0618
     17 H           1.4643   -0.8329    0.0000 H       1  UNL1        0.0618
     18 H           6.0881   -1.5369    0.0000 H       1  UNL1        0.0292
     19 H           6.9350   -1.3100    0.0000 H       1  UNL1        0.0292
     20 H           6.7081   -0.4631    0.0000 H       1  UNL1        0.0292
@<TRIPOS>BOND
     1     1     3   ar
     2     1     5   ar
     3     2     3   ar
     4     2     4   ar
     5     2     6   ar
     6     3     8   ar
     7     4     7   ar
     8     4    12    1
     9     5     7   ar
    10     5    11    1
    11     6     9   ar
    12     6    13    1
    13     7    14    1
    14     8    10   ar
    15     8    15    1
    16     9    10   ar
    17     9    16    1
    18    10    17    1
    19    11    18    1
    20    11    19    1
    21    11    20    1
