@<TRIPOS>MOLECULE
IMPHY003152
 77 82 0 0 0
SMALL
GASTEIGER

@<TRIPOS>ATOM
      1 O          10.7038   -0.5153    0.0000 O.3     1  UNL1       -0.4552
      2 O           9.3042   -2.0697    0.0000 O.3     1  UNL1       -0.3873
      3 O           7.5596   -2.5737    0.0000 O.3     1  UNL1       -0.4677
      4 O           6.2860   -1.3999    0.0000 O.2     1  UNL1       -0.2504
      5 O          11.0574    1.1803    0.0000 O.2     1  UNL1       -0.2449
      6 O          14.6604    1.3136    0.0000 O.3     1  UNL1       -0.4913
      7 O          13.9533   -2.0776    0.0000 O.3     1  UNL1       -0.4913
      8 O          15.2858   -0.5862    0.0000 O.3     1  UNL1       -0.4885
      9 N           6.9654    2.1163    0.0000 N.3     1  UNL1       -0.2934
     10 N           4.5124    0.9988    0.0000 N.ar    1  UNL1       -0.3564
     11 C           7.6200    0.1532    0.0000 C.3     1  UNL1       -0.0197
     12 C           8.3170    0.9273    0.0000 C.3     1  UNL1       -0.0211
     13 C           6.6028    0.3776    0.0000 C.3     1  UNL1       -0.0278
     14 C           7.9393   -0.8837    0.0000 C.3     1  UNL1        0.0888
     15 C           6.2962    1.3731    0.0000 C.3     1  UNL1        0.0512
     16 C           7.9875    1.9154    0.0000 C.3     1  UNL1        0.0028
     17 C           9.3816    0.7181    0.0000 C.3     1  UNL1       -0.0089
     18 C           8.9988   -1.1175    0.0000 C.3     1  UNL1        0.1052
     19 C           9.7248   -0.3112    0.0000 C.3     1  UNL1        0.1302
     20 C           5.3181    1.5810    0.0000 C.ar    1  UNL1        0.0376
     21 C           6.6564    3.0673    0.0000 C.3     1  UNL1        0.0036
     22 C           5.6782    3.2752    0.0000 C.3     1  UNL1       -0.0125
     23 C           5.0091    2.5321    0.0000 C.ar    1  UNL1       -0.0164
     24 C           7.2616   -1.6191    0.0000 C.2     1  UNL1        0.3128
     25 C           4.0150    2.5295    0.0000 C.ar    1  UNL1        0.0032
     26 C           3.7086    1.5838    0.0000 C.ar    1  UNL1        0.0470
     27 C           3.3334    3.3090    0.0000 C.ar    1  UNL1       -0.0523
     28 C          11.3700    0.2304    0.0000 C.2     1  UNL1        0.3398
     29 C           2.6994    1.3521    0.0000 C.ar    1  UNL1       -0.0378
     30 C           2.3191    3.1007    0.0000 C.ar    1  UNL1       -0.0611
     31 C           6.8820   -3.3090    0.0000 C.3     1  UNL1        0.0817
     32 C           2.0000    2.1156    0.0000 C.ar    1  UNL1       -0.0598
     33 C          12.3490    0.0263    0.0000 C.ar    1  UNL1        0.0661
     34 C          12.6617   -0.9236    0.0000 C.ar    1  UNL1       -0.0021
     35 C          13.0152    0.7720    0.0000 C.ar    1  UNL1       -0.0021
     36 C          13.9942    0.5678    0.0000 C.ar    1  UNL1        0.1660
     37 C          13.6406   -1.1277    0.0000 C.ar    1  UNL1        0.1660
     38 C          14.3069   -0.3820    0.0000 C.ar    1  UNL1        0.2035
     39 C          14.3478    2.2634    0.0000 C.3     1  UNL1        0.0790
     40 C          13.2870   -2.8233    0.0000 C.3     1  UNL1        0.0790
     41 C          15.9521    0.1596    0.0000 C.3     1  UNL1        0.0791
     42 H           7.0440   -0.4718    0.0000 H       1  UNL1        0.0313
     43 H           8.8784    1.5655    0.0000 H       1  UNL1        0.0317
     44 H           5.9878    0.2992    0.0000 H       1  UNL1        0.0287
     45 H           6.5748   -0.2417    0.0000 H       1  UNL1        0.0287
     46 H           7.3346   -0.7467    0.0000 H       1  UNL1        0.0443
     47 H           5.7226    0.7459    0.0000 H       1  UNL1        0.0527
     48 H           8.6005    2.0080    0.0000 H       1  UNL1        0.0429
     49 H           8.0011    2.5353    0.0000 H       1  UNL1        0.0429
     50 H           9.9946    0.8107    0.0000 H       1  UNL1        0.0305
     51 H           9.3953    1.3380    0.0000 H       1  UNL1        0.0305
     52 H           9.6050   -1.2476    0.0000 H       1  UNL1        0.0638
     53 H           9.9176   -0.9005    0.0000 H       1  UNL1        0.0760
     54 H           7.2703    3.1536    0.0000 H       1  UNL1        0.0430
     55 H           6.6780    3.6869    0.0000 H       1  UNL1        0.0430
     56 H           5.9105    3.8501    0.0000 H       1  UNL1        0.0326
     57 H           5.1524    3.6038    0.0000 H       1  UNL1        0.0326
     58 H           4.5113    0.3788    0.0000 H       1  UNL1        0.1656
     59 H           9.9101   -2.2010    0.0000 H       1  UNL1        0.2100
     60 H           3.5313    3.8966    0.0000 H       1  UNL1        0.0624
     61 H           2.5152    0.7601    0.0000 H       1  UNL1        0.0638
     62 H           1.9056    3.5626    0.0000 H       1  UNL1        0.0618
     63 H           6.4260   -2.8888    0.0000 H       1  UNL1        0.0661
     64 H           6.4618   -3.7649    0.0000 H       1  UNL1        0.0661
     65 H           7.3379   -3.7292    0.0000 H       1  UNL1        0.0661
     66 H           1.3942    1.9838    0.0000 H       1  UNL1        0.0618
     67 H          12.2486   -1.3859    0.0000 H       1  UNL1        0.0663
     68 H          12.8214    1.3609    0.0000 H       1  UNL1        0.0663
     69 H          14.9367    2.4573    0.0000 H       1  UNL1        0.0660
     70 H          14.1539    2.8523    0.0000 H       1  UNL1        0.0660
     71 H          13.7588    2.0696    0.0000 H       1  UNL1        0.0660
     72 H          12.8247   -2.4102    0.0000 H       1  UNL1        0.0660
     73 H          12.8739   -3.2857    0.0000 H       1  UNL1        0.0660
     74 H          13.7494   -3.2364    0.0000 H       1  UNL1        0.0660
     75 H          16.4144   -0.2535    0.0000 H       1  UNL1        0.0660
     76 H          16.3651    0.6219    0.0000 H       1  UNL1        0.0660
     77 H          15.4897    0.5726    0.0000 H       1  UNL1        0.0660
@<TRIPOS>BOND
     1    19     1    1
     2     1    28    1
     3    18     2    1
     4     2    59    1
     5     3    24    1
     6     3    31    1
     7     4    24    2
     8     5    28    2
     9     6    36    1
    10     6    39    1
    11     7    37    1
    12     7    40    1
    13     8    38    1
    14     8    41    1
    15     9    15    1
    16     9    16    1
    17     9    21    1
    18    10    20   ar
    19    10    26   ar
    20    10    58    1
    21    11    12    1
    22    11    13    1
    23    11    14    1
    24    11    42    1
    25    12    16    1
    26    12    17    1
    27    12    43    1
    28    13    15    1
    29    13    44    1
    30    13    45    1
    31    14    18    1
    32    14    24    1
    33    14    46    1
    34    15    20    1
    35    15    47    1
    36    16    48    1
    37    16    49    1
    38    17    19    1
    39    17    50    1
    40    17    51    1
    41    18    19    1
    42    18    52    1
    43    19    53    1
    44    20    23   ar
    45    21    22    1
    46    21    54    1
    47    21    55    1
    48    22    23    1
    49    22    56    1
    50    22    57    1
    51    23    25   ar
    52    25    26   ar
    53    25    27   ar
    54    26    29   ar
    55    27    30   ar
    56    27    60    1
    57    28    33    1
    58    29    32   ar
    59    29    61    1
    60    30    32   ar
    61    30    62    1
    62    31    63    1
    63    31    64    1
    64    31    65    1
    65    32    66    1
    66    33    34   ar
    67    33    35   ar
    68    34    37   ar
    69    34    67    1
    70    35    36   ar
    71    35    68    1
    72    36    38   ar
    73    37    38   ar
    74    39    69    1
    75    39    70    1
    76    39    71    1
    77    40    72    1
    78    40    73    1
    79    40    74    1
    80    41    75    1
    81    41    76    1
    82    41    77    1
