@<TRIPOS>MOLECULE
IMPHY012839
 45 48 0 0 0
SMALL
GASTEIGER

@<TRIPOS>ATOM
      1 O           9.9404    1.8768    0.0000 O.3     1  UNL1       -0.4853
      2 O          12.5241    1.0721    0.0000 O.3     1  UNL1       -0.3855
      3 O           8.1282   -0.9279    0.0000 O.3     1  UNL1       -0.5058
      4 O           5.5301   -1.4279    0.0000 O.2     1  UNL1       -0.4618
      5 O           5.5301    1.5721    0.0000 O.2     1  UNL1       -0.2863
      6 O           3.7817    1.6067    0.0000 O.3     1  UNL1       -0.5058
      7 O           2.0000   -1.4521    0.0000 O.3     1  UNL1       -0.5065
      8 C          10.5241    1.0721    0.0000 C.3     1  UNL1        0.1323
      9 C          11.5241    1.0721    0.0000 C.3     1  UNL1        0.0974
     10 C           9.9404    0.2673    0.0000 C.3     1  UNL1        0.0192
     11 C           8.9942    0.5721    0.0000 C.ar    1  UNL1        0.0398
     12 C           8.9942    1.5721    0.0000 C.ar    1  UNL1        0.1278
     13 C          11.5241    2.0721    0.0000 C.3     1  UNL1       -0.0328
     14 C          11.5241    0.0721    0.0000 C.3     1  UNL1       -0.0328
     15 C           8.1282    0.0721    0.0000 C.ar    1  UNL1        0.1315
     16 C           7.2622    0.5721    0.0000 C.ar    1  UNL1        0.0307
     17 C           8.1282    2.0721    0.0000 C.ar    1  UNL1       -0.0188
     18 C           7.2622    1.5721    0.0000 C.ar    1  UNL1       -0.0469
     19 C           6.3961    0.0721    0.0000 C.ar    1  UNL1        0.0679
     20 C           5.5301    0.5721    0.0000 C.ar    1  UNL1        0.2038
     21 C           6.3961   -0.9279    0.0000 C.ar    1  UNL1        0.1040
     22 C           4.6641    0.0721    0.0000 C.ar    1  UNL1        0.1060
     23 C           4.6641   -0.9279    0.0000 C.ar    1  UNL1        0.1454
     24 C           3.7702    0.6067    0.0000 C.ar    1  UNL1        0.1347
     25 C           3.7702   -1.4626    0.0000 C.ar    1  UNL1        0.0231
     26 C           2.8641    0.0929    0.0000 C.ar    1  UNL1        0.0223
     27 C           2.8641   -0.9487    0.0000 C.ar    1  UNL1        0.1239
     28 H          10.8058    1.6244    0.0000 H       1  UNL1        0.0765
     29 H           9.6894   -0.2996    0.0000 H       1  UNL1        0.0352
     30 H          10.4778   -0.0419    0.0000 H       1  UNL1        0.0352
     31 H          12.1441    2.0721    0.0000 H       1  UNL1        0.0258
     32 H          11.5241    2.6921    0.0000 H       1  UNL1        0.0258
     33 H          10.9041    2.0721    0.0000 H       1  UNL1        0.0258
     34 H          10.9041    0.0721    0.0000 H       1  UNL1        0.0258
     35 H          11.5241   -0.5479    0.0000 H       1  UNL1        0.0258
     36 H          12.1441    0.0721    0.0000 H       1  UNL1        0.0258
     37 H           8.1282    2.6921    0.0000 H       1  UNL1        0.0654
     38 H          12.8341    1.6090    0.0000 H       1  UNL1        0.2103
     39 H           6.7252    1.8821    0.0000 H       1  UNL1        0.0626
     40 H           8.6651   -1.2379    0.0000 H       1  UNL1        0.2922
     41 H           6.9331   -1.2379    0.0000 H       1  UNL1        0.1037
     42 H           3.7773   -2.0826    0.0000 H       1  UNL1        0.0691
     43 H           2.3284    0.4050    0.0000 H       1  UNL1        0.0691
     44 H           3.2484    1.9229    0.0000 H       1  UNL1        0.2922
     45 H           2.0024   -2.0721    0.0000 H       1  UNL1        0.2921
@<TRIPOS>BOND
     1     1     8    1
     2     1    12    1
     3     2     9    1
     4     2    38    1
     5     3    15    1
     6     3    40    1
     7     4    21   ar
     8     4    23   ar
     9     5    20    2
    10     6    24    1
    11     6    44    1
    12     7    27    1
    13     7    45    1
    14     8     9    1
    15     8    10    1
    16     8    28    1
    17     9    13    1
    18     9    14    1
    19    10    11    1
    20    10    29    1
    21    10    30    1
    22    11    12   ar
    23    11    15   ar
    24    12    17   ar
    25    13    31    1
    26    13    32    1
    27    13    33    1
    28    14    34    1
    29    14    35    1
    30    14    36    1
    31    15    16   ar
    32    16    18   ar
    33    16    19    1
    34    17    18   ar
    35    17    37    1
    36    18    39    1
    37    19    20   ar
    38    19    21   ar
    39    20    22   ar
    40    21    41    1
    41    22    23   ar
    42    22    24   ar
    43    23    25   ar
    44    24    26   ar
    45    25    27   ar
    46    25    42    1
    47    26    27   ar
    48    26    43    1
