@<TRIPOS>MOLECULE
IMPHY005907
 35 37 0 0 0
SMALL
GASTEIGER

@<TRIPOS>ATOM
      1 O           6.3981   -0.6154    0.0000 O.2     1  UNL1       -0.4507
      2 O           2.8680    1.4088    0.0000 O.3     1  UNL1       -0.4885
      3 O           4.6497    2.4192    0.0000 O.3     1  UNL1       -0.5027
      4 O           8.1301    1.3846    0.0000 O.3     1  UNL1       -0.5007
      5 O           2.8680   -0.6395    0.0000 O.3     1  UNL1       -0.5031
      6 O           6.3981    2.3846    0.0000 O.2     1  UNL1       -0.2830
      7 O          10.7282   -2.1154    0.0000 O.3     1  UNL1       -0.5068
      8 C           5.5320    0.8846    0.0000 C.ar    1  UNL1        0.1128
      9 C           5.5320   -0.1154    0.0000 C.ar    1  UNL1        0.1468
     10 C           7.2641   -0.1154    0.0000 C.ar    1  UNL1        0.1806
     11 C           4.6381    1.4193    0.0000 C.ar    1  UNL1        0.1769
     12 C           6.3981    1.3846    0.0000 C.ar    1  UNL1        0.2380
     13 C           7.2641    0.8846    0.0000 C.ar    1  UNL1        0.2082
     14 C           8.1301   -0.6154    0.0000 C.ar    1  UNL1        0.0213
     15 C           4.6381   -0.6501    0.0000 C.ar    1  UNL1        0.0268
     16 C           3.7320    0.9054    0.0000 C.ar    1  UNL1        0.2040
     17 C           3.7320   -0.1362    0.0000 C.ar    1  UNL1        0.1657
     18 C           8.1301   -1.6154    0.0000 C.ar    1  UNL1       -0.0475
     19 C           8.9962   -0.1154    0.0000 C.ar    1  UNL1       -0.0475
     20 C           8.9962   -2.1154    0.0000 C.ar    1  UNL1       -0.0195
     21 C           9.8622   -0.6154    0.0000 C.ar    1  UNL1       -0.0195
     22 C           9.8622   -1.6154    0.0000 C.ar    1  UNL1        0.1169
     23 C           2.0000    0.9121    0.0000 C.3     1  UNL1        0.0791
     24 H           4.6453   -1.2700    0.0000 H       1  UNL1        0.0692
     25 H           7.5932   -1.9254    0.0000 H       1  UNL1        0.0626
     26 H           8.9962    0.5046    0.0000 H       1  UNL1        0.0626
     27 H           8.9962   -2.7354    0.0000 H       1  UNL1        0.0654
     28 H          10.3991   -0.3054    0.0000 H       1  UNL1        0.0654
     29 H           4.1164    2.7354    0.0000 H       1  UNL1        0.2923
     30 H           8.1301    2.0046    0.0000 H       1  UNL1        0.2924
     31 H           2.8703   -1.2595    0.0000 H       1  UNL1        0.2923
     32 H           1.6921    1.4502    0.0000 H       1  UNL1        0.0660
     33 H           1.4619    0.6042    0.0000 H       1  UNL1        0.0660
     34 H           2.3079    0.3740    0.0000 H       1  UNL1        0.0660
     35 H          10.7282   -2.7354    0.0000 H       1  UNL1        0.2921
@<TRIPOS>BOND
     1     1     9   ar
     2     1    10   ar
     3     2    16    1
     4     2    23    1
     5     3    11    1
     6     3    29    1
     7     4    13    1
     8     4    30    1
     9     5    17    1
    10     5    31    1
    11     6    12    2
    12     7    22    1
    13     7    35    1
    14     8     9   ar
    15     8    11   ar
    16     8    12   ar
    17     9    15   ar
    18    10    13   ar
    19    10    14    1
    20    11    16   ar
    21    12    13   ar
    22    14    18   ar
    23    14    19   ar
    24    15    17   ar
    25    15    24    1
    26    16    17   ar
    27    18    20   ar
    28    18    25    1
    29    19    21   ar
    30    19    26    1
    31    20    22   ar
    32    20    27    1
    33    21    22   ar
    34    21    28    1
    35    23    32    1
    36    23    33    1
    37    23    34    1
