@<TRIPOS>MOLECULE
IMPHY005934
 28 27 0 0 0
SMALL
GASTEIGER

@<TRIPOS>ATOM
      1 O           8.0622   -1.6550    0.0000 O.3     1  UNL1       -0.3947
      2 C           4.5981    1.3450    0.0000 C.3     1  UNL1       -0.0496
      3 C           3.7320    0.8450    0.0000 C.3     1  UNL1       -0.0530
      4 C           5.4641    0.8450    0.0000 C.3     1  UNL1       -0.0348
      5 C           2.8660    1.3450    0.0000 C.3     1  UNL1       -0.0559
      6 C           6.3301    1.3450    0.0000 C.2     1  UNL1       -0.0879
      7 C           2.0000    0.8450    0.0000 C.3     1  UNL1       -0.0653
      8 C           7.1962    0.8450    0.0000 C.2     1  UNL1       -0.0858
      9 C           7.1962   -0.1550    0.0000 C.3     1  UNL1       -0.0115
     10 C           8.0622   -0.6550    0.0000 C.3     1  UNL1        0.0476
     11 H           4.9966    1.8200    0.0000 H       1  UNL1        0.0268
     12 H           4.1996    1.8200    0.0000 H       1  UNL1        0.0268
     13 H           3.3335    0.3701    0.0000 H       1  UNL1        0.0265
     14 H           4.1306    0.3701    0.0000 H       1  UNL1        0.0265
     15 H           5.0656    0.3701    0.0000 H       1  UNL1        0.0307
     16 H           5.8626    0.3701    0.0000 H       1  UNL1        0.0307
     17 H           3.2646    1.8200    0.0000 H       1  UNL1        0.0263
     18 H           2.4675    1.8200    0.0000 H       1  UNL1        0.0263
     19 H           6.3301    1.9650    0.0000 H       1  UNL1        0.0569
     20 H           1.6900    1.3819    0.0000 H       1  UNL1        0.0230
     21 H           1.4631    0.5350    0.0000 H       1  UNL1        0.0230
     22 H           2.3100    0.3081    0.0000 H       1  UNL1        0.0230
     23 H           7.7331    1.1550    0.0000 H       1  UNL1        0.0570
     24 H           6.5856   -0.0473    0.0000 H       1  UNL1        0.0329
     25 H           6.9841   -0.7376    0.0000 H       1  UNL1        0.0329
     26 H           8.6728   -0.7627    0.0000 H       1  UNL1        0.0560
     27 H           8.2742   -0.0724    0.0000 H       1  UNL1        0.0560
     28 H           8.5991   -1.9650    0.0000 H       1  UNL1        0.2094
@<TRIPOS>BOND
     1     1    10    1
     2     1    28    1
     3     2     3    1
     4     2     4    1
     5     2    11    1
     6     2    12    1
     7     3     5    1
     8     3    13    1
     9     3    14    1
    10     4     6    1
    11     4    15    1
    12     4    16    1
    13     5     7    1
    14     5    17    1
    15     5    18    1
    16     6     8    2
    17     6    19    1
    18     7    20    1
    19     7    21    1
    20     7    22    1
    21     8     9    1
    22     8    23    1
    23     9    10    1
    24     9    24    1
    25     9    25    1
    26    10    26    1
    27    10    27    1
