@<TRIPOS>MOLECULE
IMPHY015734
 38 37 0 0 0
SMALL
GASTEIGER

@<TRIPOS>ATOM
      1 O           7.1962    0.7500    0.0000 O.3     1  UNL1       -0.4646
      2 O           6.3301   -0.7500    0.0000 O.2     1  UNL1       -0.2509
      3 C           9.7942    0.2500    0.0000 C.3     1  UNL1       -0.0500
      4 C          10.6603    0.7500    0.0000 C.3     1  UNL1       -0.0532
      5 C           8.9282    0.7500    0.0000 C.3     1  UNL1       -0.0185
      6 C           4.5981    0.2500    0.0000 C.3     1  UNL1       -0.0430
      7 C           3.7320    0.7500    0.0000 C.3     1  UNL1       -0.0528
      8 C          11.5263    0.2500    0.0000 C.3     1  UNL1       -0.0559
      9 C           8.0622    0.2500    0.0000 C.3     1  UNL1        0.0925
     10 C           5.4641    0.7500    0.0000 C.3     1  UNL1        0.0449
     11 C           2.8660    0.2500    0.0000 C.3     1  UNL1       -0.0559
     12 C           6.3301    0.2500    0.0000 C.2     1  UNL1        0.3071
     13 C          12.3923    0.7500    0.0000 C.3     1  UNL1       -0.0653
     14 C           2.0000    0.7500    0.0000 C.3     1  UNL1       -0.0653
     15 H           9.3957   -0.2249    0.0000 H       1  UNL1        0.0266
     16 H          10.1928   -0.2249    0.0000 H       1  UNL1        0.0266
     17 H          11.0588    1.2250    0.0000 H       1  UNL1        0.0265
     18 H          10.2617    1.2250    0.0000 H       1  UNL1        0.0265
     19 H           9.3267    1.2250    0.0000 H       1  UNL1        0.0298
     20 H           8.5297    1.2250    0.0000 H       1  UNL1        0.0298
     21 H           4.1996   -0.2249    0.0000 H       1  UNL1        0.0270
     22 H           4.9966   -0.2249    0.0000 H       1  UNL1        0.0270
     23 H           4.1306    1.2250    0.0000 H       1  UNL1        0.0265
     24 H           3.3335    1.2250    0.0000 H       1  UNL1        0.0265
     25 H          11.1278   -0.2249    0.0000 H       1  UNL1        0.0263
     26 H          11.9248   -0.2249    0.0000 H       1  UNL1        0.0263
     27 H           7.6636   -0.2249    0.0000 H       1  UNL1        0.0697
     28 H           8.4607   -0.2249    0.0000 H       1  UNL1        0.0697
     29 H           5.8626    1.2250    0.0000 H       1  UNL1        0.0377
     30 H           5.0656    1.2250    0.0000 H       1  UNL1        0.0377
     31 H           2.4675   -0.2249    0.0000 H       1  UNL1        0.0263
     32 H           3.2646   -0.2249    0.0000 H       1  UNL1        0.0263
     33 H          12.7023    0.2131    0.0000 H       1  UNL1        0.0230
     34 H          12.9292    1.0600    0.0000 H       1  UNL1        0.0230
     35 H          12.0823    1.2869    0.0000 H       1  UNL1        0.0230
     36 H           2.3100    1.2869    0.0000 H       1  UNL1        0.0230
     37 H           1.4631    1.0600    0.0000 H       1  UNL1        0.0230
     38 H           1.6900    0.2131    0.0000 H       1  UNL1        0.0230
@<TRIPOS>BOND
     1     1     9    1
     2     1    12    1
     3     2    12    2
     4     3     4    1
     5     3     5    1
     6     3    15    1
     7     3    16    1
     8     4     8    1
     9     4    17    1
    10     4    18    1
    11     5     9    1
    12     5    19    1
    13     5    20    1
    14     6     7    1
    15     6    10    1
    16     6    21    1
    17     6    22    1
    18     7    11    1
    19     7    23    1
    20     7    24    1
    21     8    13    1
    22     8    25    1
    23     8    26    1
    24     9    27    1
    25     9    28    1
    26    10    12    1
    27    10    29    1
    28    10    30    1
    29    11    14    1
    30    11    31    1
    31    11    32    1
    32    13    33    1
    33    13    34    1
    34    13    35    1
    35    14    36    1
    36    14    37    1
    37    14    38    1
