@<TRIPOS>MOLECULE
IMPHY000868
 110 120 0 0 0
SMALL
GASTEIGER

@<TRIPOS>ATOM
      1 O          15.0573   -2.3979    0.0000 O.3     1  UNL1       -0.4829
      2 O          12.4132    1.8477    0.0000 O.3     1  UNL1       -0.4830
      3 O           5.0688   -0.8627    0.0000 O.3     1  UNL1       -0.4829
      4 O          11.5130   -2.5932    0.0000 O.3     1  UNL1       -0.5066
      5 O          14.3430    2.6012    0.0000 O.3     1  UNL1       -0.5066
      6 O          17.6357    1.5250    0.0000 O.3     1  UNL1       -0.5066
      7 O          16.9523   -0.0620    0.0000 O.3     1  UNL1       -0.5068
      8 O          19.1050   -3.5932    0.0000 O.3     1  UNL1       -0.5068
      9 O           7.2905   -3.6312    0.0000 O.3     1  UNL1       -0.5066
     10 O           6.2668    3.6762    0.0000 O.3     1  UNL1       -0.5066
     11 O           9.2668    1.9442    0.0000 O.3     1  UNL1       -0.5066
     12 O           2.6067    3.0863    0.0000 O.3     1  UNL1       -0.5068
     13 C          12.7451    0.2728    0.0000 C.3     1  UNL1        0.0543
     14 C          15.0573   -0.7884    0.0000 C.3     1  UNL1        0.0543
     15 C          14.1111   -1.0932    0.0000 C.ar    1  UNL1        0.0097
     16 C          13.2451   -0.5932    0.0000 C.ar    1  UNL1       -0.0252
     17 C          13.1502    1.1806    0.0000 C.3     1  UNL1        0.1360
     18 C          15.6409   -1.5932    0.0000 C.3     1  UNL1        0.1360
     19 C          11.7564    0.3759    0.0000 C.ar    1  UNL1        0.0061
     20 C          14.1111   -2.0932    0.0000 C.ar    1  UNL1        0.1290
     21 C          15.3680    0.1621    0.0000 C.ar    1  UNL1       -0.0291
     22 C          11.5501    1.3544    0.0000 C.ar    1  UNL1        0.1253
     23 C          12.3790   -1.0932    0.0000 C.ar    1  UNL1       -0.0158
     24 C          14.1007    0.8700    0.0000 C.ar    1  UNL1       -0.0062
     25 C          16.5070   -2.0932    0.0000 C.ar    1  UNL1       -0.0062
     26 C          13.2451   -2.5932    0.0000 C.ar    1  UNL1        0.0219
     27 C          11.0120   -0.2919    0.0000 C.ar    1  UNL1       -0.0472
     28 C          12.3790   -2.0932    0.0000 C.ar    1  UNL1        0.1206
     29 C          10.5996    1.6651    0.0000 C.ar    1  UNL1       -0.0191
     30 C          10.0615    0.0187    0.0000 C.ar    1  UNL1       -0.0245
     31 C           6.2668    0.2121    0.0000 C.3     1  UNL1        0.0546
     32 C          16.3465    0.3683    0.0000 C.ar    1  UNL1       -0.0161
     33 C          14.7001    0.9064    0.0000 C.ar    1  UNL1       -0.0161
     34 C           5.2780    0.1091    0.0000 C.3     1  UNL1        0.1360
     35 C           6.6719   -0.6956    0.0000 C.ar    1  UNL1        0.0129
     36 C           9.8553    0.9972    0.0000 C.ar    1  UNL1       -0.0511
     37 C          14.3069   -0.1085    0.0000 C.ar    1  UNL1       -0.0516
     38 C          14.8450    1.5378    0.0000 C.ar    1  UNL1       -0.0516
     39 C          16.5070   -3.0932    0.0000 C.ar    1  UNL1       -0.0516
     40 C          17.3730   -1.5932    0.0000 C.ar    1  UNL1       -0.0516
     41 C           5.9276   -1.3635    0.0000 C.ar    1  UNL1        0.1293
     42 C           7.6224   -1.0063    0.0000 C.ar    1  UNL1       -0.0142
     43 C           9.3172   -0.6491    0.0000 C.2     1  UNL1       -0.0540
     44 C           6.7668    1.0782    0.0000 C.ar    1  UNL1       -0.0291
     45 C          15.0108    1.8569    0.0000 C.ar    1  UNL1        0.1206
     46 C          16.6572    1.3188    0.0000 C.ar    1  UNL1        0.1206
     47 C           4.6102    0.8534    0.0000 C.ar    1  UNL1       -0.0062
     48 C           8.3667   -0.3385    0.0000 C.2     1  UNL1       -0.0535
     49 C          15.2574   -0.4192    0.0000 C.ar    1  UNL1       -0.0198
     50 C          15.7955    1.2272    0.0000 C.ar    1  UNL1       -0.0198
     51 C          17.3730   -3.5932    0.0000 C.ar    1  UNL1       -0.0198
     52 C          18.2390   -2.0932    0.0000 C.ar    1  UNL1       -0.0198
     53 C          15.9893    2.0631    0.0000 C.ar    1  UNL1        0.0213
     54 C           6.1338   -2.3420    0.0000 C.ar    1  UNL1        0.0219
     55 C          16.0017    0.2486    0.0000 C.ar    1  UNL1        0.1169
     56 C           7.8286   -1.9848    0.0000 C.ar    1  UNL1       -0.0125
     57 C          18.2390   -3.0932    0.0000 C.ar    1  UNL1        0.1169
     58 C           7.0843   -2.6527    0.0000 C.ar    1  UNL1        0.1209
     59 C           7.7668    1.0782    0.0000 C.ar    1  UNL1       -0.0161
     60 C           6.2668    1.9442    0.0000 C.ar    1  UNL1       -0.0161
     61 C           4.9209    1.8039    0.0000 C.ar    1  UNL1       -0.0516
     62 C           3.6317    0.6472    0.0000 C.ar    1  UNL1       -0.0516
     63 C           6.7668    2.8102    0.0000 C.ar    1  UNL1        0.1206
     64 C           8.2668    1.9442    0.0000 C.ar    1  UNL1        0.1206
     65 C           4.2530    2.5482    0.0000 C.ar    1  UNL1       -0.0198
     66 C           2.9639    1.3915    0.0000 C.ar    1  UNL1       -0.0198
     67 C           7.7668    2.8102    0.0000 C.ar    1  UNL1        0.0213
     68 C           3.2745    2.3420    0.0000 C.ar    1  UNL1        0.1169
     69 H          13.5939    0.3170    0.0000 H       1  UNL1        0.0438
     70 H          15.6698   -0.6923    0.0000 H       1  UNL1        0.0438
     71 H          13.4613    1.7169    0.0000 H       1  UNL1        0.0794
     72 H          16.0560   -1.1326    0.0000 H       1  UNL1        0.0794
     73 H          11.8421   -0.7832    0.0000 H       1  UNL1        0.0657
     74 H          13.2451   -3.2132    0.0000 H       1  UNL1        0.0691
     75 H          11.1399   -0.8986    0.0000 H       1  UNL1        0.0627
     76 H          10.4718    2.2717    0.0000 H       1  UNL1        0.0654
     77 H           5.9293    0.7323    0.0000 H       1  UNL1        0.0438
     78 H          16.7605   -0.0932    0.0000 H       1  UNL1        0.0657
     79 H          14.0935    0.7785    0.0000 H       1  UNL1        0.0657
     80 H           4.6788   -0.0501    0.0000 H       1  UNL1        0.0794
     81 H           9.2660    1.1898    0.0000 H       1  UNL1        0.0625
     82 H          13.8455   -0.5226    0.0000 H       1  UNL1        0.0623
     83 H          14.7172    2.1445    0.0000 H       1  UNL1        0.0623
     84 H          15.9700   -3.4032    0.0000 H       1  UNL1        0.0623
     85 H          17.3730   -0.9732    0.0000 H       1  UNL1        0.0623
     86 H           9.4451   -1.2558    0.0000 H       1  UNL1        0.0624
     87 H           8.2388    0.2682    0.0000 H       1  UNL1        0.0624
     88 H          15.3853   -1.0259    0.0000 H       1  UNL1        0.0654
     89 H          16.2570    1.6412    0.0000 H       1  UNL1        0.0654
     90 H          17.3730   -4.2132    0.0000 H       1  UNL1        0.0654
     91 H          18.7759   -1.7832    0.0000 H       1  UNL1        0.0654
     92 H          16.1819    2.6524    0.0000 H       1  UNL1        0.0691
     93 H          11.5130   -3.2132    0.0000 H       1  UNL1        0.2921
     94 H           5.6723   -2.7561    0.0000 H       1  UNL1        0.0691
     95 H           8.4180   -2.1774    0.0000 H       1  UNL1        0.0660
     96 H           8.0768    0.5412    0.0000 H       1  UNL1        0.0657
     97 H           5.6468    1.9442    0.0000 H       1  UNL1        0.0657
     98 H           5.5275    1.9318    0.0000 H       1  UNL1        0.0623
     99 H           3.4391    0.0578    0.0000 H       1  UNL1        0.0623
    100 H          14.5356    3.1905    0.0000 H       1  UNL1        0.2921
    101 H          17.8283    2.1144    0.0000 H       1  UNL1        0.2921
    102 H           4.4456    3.1375    0.0000 H       1  UNL1        0.0654
    103 H           2.3572    1.2636    0.0000 H       1  UNL1        0.0654
    104 H           8.0768    3.3472    0.0000 H       1  UNL1        0.0691
    105 H          17.4137    0.3520    0.0000 H       1  UNL1        0.2921
    106 H          19.1050   -4.2132    0.0000 H       1  UNL1        0.2921
    107 H           6.8291   -4.0452    0.0000 H       1  UNL1        0.2921
    108 H           6.5768    4.2132    0.0000 H       1  UNL1        0.2921
    109 H           9.5768    2.4811    0.0000 H       1  UNL1        0.2921
    110 H           2.0000    2.9584    0.0000 H       1  UNL1        0.2921
@<TRIPOS>BOND
     1     1    18    1
     2     1    20    1
     3     2    17    1
     4     2    22    1
     5     3    34    1
     6     3    41    1
     7     4    28    1
     8     4    93    1
     9     5    45    1
    10     5   100    1
    11     6    46    1
    12     6   101    1
    13     7    55    1
    14     7   105    1
    15     8    57    1
    16     8   106    1
    17     9    58    1
    18     9   107    1
    19    10    63    1
    20    10   108    1
    21    11    64    1
    22    11   109    1
    23    12    68    1
    24    12   110    1
    25    13    16    1
    26    13    17    1
    27    13    19    1
    28    13    69    1
    29    14    15    1
    30    14    18    1
    31    14    21    1
    32    14    70    1
    33    15    16   ar
    34    15    20   ar
    35    16    23   ar
    36    17    24    1
    37    17    71    1
    38    18    25    1
    39    18    72    1
    40    19    22   ar
    41    19    27   ar
    42    20    26   ar
    43    21    32   ar
    44    21    33   ar
    45    22    29   ar
    46    23    28   ar
    47    23    73    1
    48    24    37   ar
    49    24    38   ar
    50    25    39   ar
    51    25    40   ar
    52    26    28   ar
    53    26    74    1
    54    27    30   ar
    55    27    75    1
    56    29    36   ar
    57    29    76    1
    58    30    36   ar
    59    30    43    1
    60    31    34    1
    61    31    35    1
    62    31    44    1
    63    31    77    1
    64    32    46   ar
    65    32    78    1
    66    33    45   ar
    67    33    79    1
    68    34    47    1
    69    34    80    1
    70    35    41   ar
    71    35    42   ar
    72    36    81    1
    73    37    49   ar
    74    37    82    1
    75    38    50   ar
    76    38    83    1
    77    39    51   ar
    78    39    84    1
    79    40    52   ar
    80    40    85    1
    81    41    54   ar
    82    42    48    1
    83    42    56   ar
    84    43    48    2
    85    43    86    1
    86    44    59   ar
    87    44    60   ar
    88    45    53   ar
    89    46    53   ar
    90    47    61   ar
    91    47    62   ar
    92    48    87    1
    93    49    55   ar
    94    49    88    1
    95    50    55   ar
    96    50    89    1
    97    51    57   ar
    98    51    90    1
    99    52    57   ar
   100    52    91    1
   101    53    92    1
   102    54    58   ar
   103    54    94    1
   104    56    58   ar
   105    56    95    1
   106    59    64   ar
   107    59    96    1
   108    60    63   ar
   109    60    97    1
   110    61    65   ar
   111    61    98    1
   112    62    66   ar
   113    62    99    1
   114    63    67   ar
   115    64    67   ar
   116    65    68   ar
   117    65   102    1
   118    66    68   ar
   119    66   103    1
   120    67   104    1
