@<TRIPOS>MOLECULE
IMPHY006565
 16 15 0 0 0
SMALL
GASTEIGER

@<TRIPOS>ATOM
      1 O           5.4641   -0.0600    0.0000 O.3     1  UNL1       -0.3907
      2 C           3.7320   -0.0600    0.0000 C.2     1  UNL1       -0.0518
      3 C           4.5981    0.4400    0.0000 C.3     1  UNL1        0.0650
      4 C           3.7320   -1.0600    0.0000 C.3     1  UNL1       -0.0417
      5 C           2.8660    0.4400    0.0000 C.2     1  UNL1       -0.0860
      6 C           2.0000   -0.0600    0.0000 C.3     1  UNL1       -0.0465
      7 H           4.9966    0.9149    0.0000 H       1  UNL1        0.0604
      8 H           4.1996    0.9149    0.0000 H       1  UNL1        0.0604
      9 H           3.1120   -1.0600    0.0000 H       1  UNL1        0.0275
     10 H           3.7320   -1.6800    0.0000 H       1  UNL1        0.0275
     11 H           4.3520   -1.0600    0.0000 H       1  UNL1        0.0275
     12 H           2.8660    1.0600    0.0000 H       1  UNL1        0.0569
     13 H           1.6900    0.4769    0.0000 H       1  UNL1        0.0272
     14 H           1.4631   -0.3700    0.0000 H       1  UNL1        0.0272
     15 H           2.3100   -0.5969    0.0000 H       1  UNL1        0.0272
     16 H           6.0010    0.2500    0.0000 H       1  UNL1        0.2098
@<TRIPOS>BOND
     1     1     3    1
     2     1    16    1
     3     2     3    1
     4     2     4    1
     5     2     5    2
     6     3     7    1
     7     3     8    1
     8     4     9    1
     9     4    10    1
    10     4    11    1
    11     5     6    1
    12     5    12    1
    13     6    13    1
    14     6    14    1
    15     6    15    1
