@<TRIPOS>MOLECULE
IMPHY005154
 73 76 0 0 0
SMALL
GASTEIGER

@<TRIPOS>ATOM
      1 O           8.8158    2.4428    0.0000 O.3     1  UNL1       -0.4622
      2 O           7.9410    0.2622    0.0000 O.3     1  UNL1       -0.3767
      3 O           5.1350   -3.2596    0.0000 O.3     1  UNL1       -0.3313
      4 O           6.8671   -3.2596    0.0000 O.3     1  UNL1       -0.4572
      5 O           5.1350   -6.2596    0.0000 O.3     1  UNL1       -0.3864
      6 O           3.4030   -5.2596    0.0000 O.3     1  UNL1       -0.3865
      7 O           6.8671   -5.2596    0.0000 O.3     1  UNL1       -0.3829
      8 O           9.4544    0.7792    0.0000 O.2     1  UNL1       -0.2476
      9 O           2.5369   -3.7596    0.0000 O.3     1  UNL1       -0.3924
     10 O           8.5991   -2.2596    0.0000 O.3     1  UNL1       -0.4914
     11 O           6.6007    5.6561    0.0000 O.3     1  UNL1       -0.4914
     12 O           4.6116    5.8651    0.0000 O.3     1  UNL1       -0.4915
     13 C           7.2331    2.1064    0.0000 C.3     1  UNL1        0.0368
     14 C           7.7331    1.2404    0.0000 C.3     1  UNL1        0.1721
     15 C           7.9022    2.8496    0.0000 C.3     1  UNL1        0.0988
     16 C           6.8671    0.7404    0.0000 C.3     1  UNL1        0.0123
     17 C           6.2386    2.2109    0.0000 C.3     1  UNL1       -0.0185
     18 C           8.7112    1.4483    0.0000 C.2     1  UNL1        0.3399
     19 C           5.1350   -5.2596    0.0000 C.3     1  UNL1        0.1152
     20 C           4.2690   -4.7596    0.0000 C.3     1  UNL1        0.1120
     21 C           6.0010   -4.7596    0.0000 C.3     1  UNL1        0.1454
     22 C           4.2690   -3.7596    0.0000 C.3     1  UNL1        0.1140
     23 C           6.0010   -3.7596    0.0000 C.3     1  UNL1        0.2310
     24 C           6.8671   -0.2596    0.0000 C.ar    1  UNL1       -0.0404
     25 C           5.8318    3.1245    0.0000 C.ar    1  UNL1       -0.0432
     26 C           3.4030   -3.2596    0.0000 C.3     1  UNL1        0.0731
     27 C           7.7331   -0.7596    0.0000 C.ar    1  UNL1       -0.0130
     28 C           6.0010   -0.7596    0.0000 C.ar    1  UNL1       -0.0548
     29 C           6.8671   -2.2596    0.0000 C.ar    1  UNL1        0.1654
     30 C           7.7331   -1.7596    0.0000 C.ar    1  UNL1        0.1619
     31 C           6.4196    3.9335    0.0000 C.ar    1  UNL1       -0.0131
     32 C           4.8373    3.2290    0.0000 C.ar    1  UNL1       -0.0549
     33 C           6.0010   -1.7596    0.0000 C.ar    1  UNL1       -0.0159
     34 C           6.0129    4.8470    0.0000 C.ar    1  UNL1        0.1617
     35 C           4.4306    4.1426    0.0000 C.ar    1  UNL1       -0.0160
     36 C           5.0184    4.9516    0.0000 C.ar    1  UNL1        0.1615
     37 C           9.4651   -1.7596    0.0000 C.3     1  UNL1        0.0790
     38 C           6.1939    6.5696    0.0000 C.3     1  UNL1        0.0790
     39 C           3.6171    5.9696    0.0000 C.3     1  UNL1        0.0790
     40 H           7.0109    2.6852    0.0000 H       1  UNL1        0.0370
     41 H           8.2122    3.3865    0.0000 H       1  UNL1        0.0701
     42 H           7.4006    3.2140    0.0000 H       1  UNL1        0.0701
     43 H           6.6550    1.3230    0.0000 H       1  UNL1        0.0347
     44 H           6.2565    0.6327    0.0000 H       1  UNL1        0.0347
     45 H           5.6370    2.0610    0.0000 H       1  UNL1        0.0318
     46 H           6.2818    1.5924    0.0000 H       1  UNL1        0.0318
     47 H           5.6720   -5.5696    0.0000 H       1  UNL1        0.0648
     48 H           4.2690   -5.3796    0.0000 H       1  UNL1        0.0647
     49 H           6.5380   -4.4496    0.0000 H       1  UNL1        0.0683
     50 H           4.2690   -3.1396    0.0000 H       1  UNL1        0.0647
     51 H           6.0010   -3.1396    0.0000 H       1  UNL1        0.1084
     52 H           7.4802   -0.1526    0.0000 H       1  UNL1        0.2109
     53 H           3.8015   -2.7847    0.0000 H       1  UNL1        0.0584
     54 H           3.0044   -2.7847    0.0000 H       1  UNL1        0.0584
     55 H           8.2700   -0.4496    0.0000 H       1  UNL1        0.0658
     56 H           5.4641   -0.4496    0.0000 H       1  UNL1        0.0621
     57 H           7.0362    3.8687    0.0000 H       1  UNL1        0.0658
     58 H           4.4729    2.7274    0.0000 H       1  UNL1        0.0621
     59 H           5.4641   -2.0696    0.0000 H       1  UNL1        0.0655
     60 H           5.6720   -6.5696    0.0000 H       1  UNL1        0.2100
     61 H           3.4030   -5.8796    0.0000 H       1  UNL1        0.2100
     62 H           7.4040   -4.9496    0.0000 H       1  UNL1        0.2102
     63 H           3.8140    4.2074    0.0000 H       1  UNL1        0.0655
     64 H           2.0000   -3.4496    0.0000 H       1  UNL1        0.2095
     65 H           9.7751   -2.2966    0.0000 H       1  UNL1        0.0660
     66 H          10.0021   -1.4496    0.0000 H       1  UNL1        0.0660
     67 H           9.1551   -1.2227    0.0000 H       1  UNL1        0.0660
     68 H           6.7603    6.8218    0.0000 H       1  UNL1        0.0660
     69 H           5.9418    7.1360    0.0000 H       1  UNL1        0.0660
     70 H           5.6275    6.3174    0.0000 H       1  UNL1        0.0660
     71 H           3.6819    6.5863    0.0000 H       1  UNL1        0.0660
     72 H           3.0005    6.0345    0.0000 H       1  UNL1        0.0660
     73 H           3.5523    5.3530    0.0000 H       1  UNL1        0.0660
@<TRIPOS>BOND
     1     1    15    1
     2     1    18    1
     3    14     2    1
     4     2    52    1
     5     3    22    1
     6     3    23    1
     7    23     4    1
     8     4    29    1
     9    19     5    1
    10     5    60    1
    11    20     6    1
    12     6    61    1
    13    21     7    1
    14     7    62    1
    15     8    18    2
    16     9    26    1
    17     9    64    1
    18    10    30    1
    19    10    37    1
    20    11    34    1
    21    11    38    1
    22    12    36    1
    23    12    39    1
    24    13    14    1
    25    13    15    1
    26    13    17    1
    27    13    40    1
    28    14    16    1
    29    14    18    1
    30    15    41    1
    31    15    42    1
    32    16    24    1
    33    16    43    1
    34    16    44    1
    35    17    25    1
    36    17    45    1
    37    17    46    1
    38    19    20    1
    39    19    21    1
    40    19    47    1
    41    20    22    1
    42    20    48    1
    43    21    23    1
    44    21    49    1
    45    22    26    1
    46    22    50    1
    47    23    51    1
    48    24    27   ar
    49    24    28   ar
    50    25    31   ar
    51    25    32   ar
    52    26    53    1
    53    26    54    1
    54    27    30   ar
    55    27    55    1
    56    28    33   ar
    57    28    56    1
    58    29    30   ar
    59    29    33   ar
    60    31    34   ar
    61    31    57    1
    62    32    35   ar
    63    32    58    1
    64    33    59    1
    65    34    36   ar
    66    35    36   ar
    67    35    63    1
    68    37    65    1
    69    37    66    1
    70    37    67    1
    71    38    68    1
    72    38    69    1
    73    38    70    1
    74    39    71    1
    75    39    72    1
    76    39    73    1
