@<TRIPOS>MOLECULE
IMPHY017127
 20 20 0 0 0
SMALL
GASTEIGER

@<TRIPOS>ATOM
      1 O           3.7320    2.0000    0.0000 O.3     1  UNL1       -0.4645
      2 O           2.0000    2.0000    0.0000 O.2     1  UNL1       -0.2450
      3 O           2.0000   -3.0000    0.0000 O.2     1  UNL1       -0.2957
      4 C           2.8660    0.5000    0.0000 C.ar    1  UNL1        0.0590
      5 C           2.8660   -1.5000    0.0000 C.ar    1  UNL1        0.0142
      6 C           2.0000    0.0000    0.0000 C.ar    1  UNL1       -0.0471
      7 C           3.7320   -0.0000    0.0000 C.ar    1  UNL1       -0.0471
      8 C           2.0000   -1.0000    0.0000 C.ar    1  UNL1       -0.0508
      9 C           3.7320   -1.0000    0.0000 C.ar    1  UNL1       -0.0508
     10 C           2.8660    1.5000    0.0000 C.2     1  UNL1        0.3389
     11 C           2.8660   -2.5000    0.0000 C.2     1  UNL1        0.1502
     12 C           3.7320    3.0000    0.0000 C.3     1  UNL1        0.0820
     13 H           1.4631    0.3100    0.0000 H       1  UNL1        0.0626
     14 H           4.2690    0.3100    0.0000 H       1  UNL1        0.0626
     15 H           1.4631   -1.3100    0.0000 H       1  UNL1        0.0625
     16 H           4.2690   -1.3100    0.0000 H       1  UNL1        0.0625
     17 H           3.4030   -2.8100    0.0000 H       1  UNL1        0.1081
     18 H           4.3520    3.0000    0.0000 H       1  UNL1        0.0661
     19 H           3.7320    3.6200    0.0000 H       1  UNL1        0.0661
     20 H           3.1120    3.0000    0.0000 H       1  UNL1        0.0661
@<TRIPOS>BOND
     1     1    10    1
     2     1    12    1
     3     2    10    2
     4     3    11    2
     5     4     6   ar
     6     4     7   ar
     7     4    10    1
     8     5     8   ar
     9     5     9   ar
    10     5    11    1
    11     6     8   ar
    12     6    13    1
    13     7     9   ar
    14     7    14    1
    15     8    15    1
    16     9    16    1
    17    11    17    1
    18    12    18    1
    19    12    19    1
    20    12    20    1
