@<TRIPOS>MOLECULE
IMPHY008750
 144 151 0 0 0
SMALL
GASTEIGER

@<TRIPOS>ATOM
      1 O           6.8671   -2.3970    0.0000 O.3     1  UNL1       -0.3448
      2 O           8.6424    6.9575    0.0000 O.3     1  UNL1       -0.3912
      3 O           9.3112   -1.7053    0.0000 O.3     1  UNL1       -0.3944
      4 O           5.1350   -2.3970    0.0000 O.3     1  UNL1       -0.3315
      5 O           5.8747    8.1749    0.0000 O.3     1  UNL1       -0.4802
      6 O           4.3882    7.2858    0.0000 O.2     1  UNL1       -0.2504
      7 O           6.8671   -4.3970    0.0000 O.3     1  UNL1       -0.3377
      8 O           5.1350   -5.3970    0.0000 O.3     1  UNL1       -0.3864
      9 O           3.4030   -4.3970    0.0000 O.3     1  UNL1       -0.3860
     10 O           6.0010   -5.8970    0.0000 O.3     1  UNL1       -0.3405
     11 O           2.5369   -2.8970    0.0000 O.3     1  UNL1       -0.4788
     12 O           3.4030   -1.3970    0.0000 O.2     1  UNL1       -0.2480
     13 O           8.5991   -5.3970    0.0000 O.3     1  UNL1       -0.3378
     14 O           8.5991   -7.3970    0.0000 O.3     1  UNL1       -0.3864
     15 O           6.8671   -8.3970    0.0000 O.3     1  UNL1       -0.3865
     16 O           9.4651   -6.8970    0.0000 O.3     1  UNL1       -0.3431
     17 O           5.1350   -8.3970    0.0000 O.3     1  UNL1       -0.3924
     18 O          10.3312   -4.3970    0.0000 O.3     1  UNL1       -0.3841
     19 O          12.0632   -5.3970    0.0000 O.3     1  UNL1       -0.3864
     20 O          12.0632   -7.3970    0.0000 O.3     1  UNL1       -0.3866
     21 C           7.7681    2.3032    0.0000 C.3     1  UNL1       -0.0194
     22 C           6.9040    1.7999    0.0000 C.3     1  UNL1       -0.0257
     23 C           6.8920    0.7583    0.0000 C.3     1  UNL1       -0.0249
     24 C           7.7643    3.3032    0.0000 C.3     1  UNL1       -0.0051
     25 C           7.7920    0.2340    0.0000 C.3     1  UNL1       -0.0255
     26 C           8.6801    1.7999    0.0000 C.3     1  UNL1       -0.0463
     27 C           7.8046   -0.8509    0.0000 C.3     1  UNL1        0.0206
     28 C           6.8963    3.7999    0.0000 C.2     1  UNL1       -0.0633
     29 C           8.6921    0.7583    0.0000 C.3     1  UNL1       -0.0485
     30 C           6.8762    4.8413    0.0000 C.3     1  UNL1       -0.0106
     31 C           7.7722    5.3725    0.0000 C.3     1  UNL1        0.0005
     32 C           6.0361    2.2966    0.0000 C.3     1  UNL1       -0.0306
     33 C           5.9421    0.2340    0.0000 C.3     1  UNL1       -0.0447
     34 C           8.6723    3.8136    0.0000 C.3     1  UNL1       -0.0428
     35 C           8.6763    4.8552    0.0000 C.3     1  UNL1       -0.0439
     36 C           8.7522    2.4807    0.0000 C.3     1  UNL1       -0.0585
     37 C           6.8671   -1.3970    0.0000 C.3     1  UNL1        0.0695
     38 C           6.0322    3.2965    0.0000 C.2     1  UNL1       -0.0836
     39 C           6.0279    1.2617    0.0000 C.3     1  UNL1       -0.0590
     40 C           5.9295   -0.8509    0.0000 C.3     1  UNL1       -0.0254
     41 C           8.7497    3.1334    0.0000 C.3     1  UNL1       -0.0553
     42 C           5.9223    5.3583    0.0000 C.3     1  UNL1       -0.0303
     43 C           7.7764    6.4575    0.0000 C.3     1  UNL1        0.0621
     44 C           5.9014    6.4431    0.0000 C.3     1  UNL1        0.0677
     45 C           8.8046   -0.8432    0.0000 C.3     1  UNL1        0.0522
     46 C           8.3113   -1.7130    0.0000 C.3     1  UNL1       -0.0548
     47 C           6.8347    6.9964    0.0000 C.3     1  UNL1       -0.0108
     48 C           8.6324    5.8825    0.0000 C.3     1  UNL1       -0.0567
     49 C           4.9015    6.4276    0.0000 C.3     1  UNL1       -0.0493
     50 C           5.3881    7.3013    0.0000 C.2     1  UNL1        0.3108
     51 C           6.0010   -2.8970    0.0000 C.3     1  UNL1        0.1892
     52 C           6.0010   -3.8970    0.0000 C.3     1  UNL1        0.1407
     53 C           5.1350   -4.3970    0.0000 C.3     1  UNL1        0.1149
     54 C           4.2690   -2.8970    0.0000 C.3     1  UNL1        0.1859
     55 C           4.2690   -3.8970    0.0000 C.3     1  UNL1        0.1202
     56 C           6.8671   -5.3970    0.0000 C.3     1  UNL1        0.1889
     57 C           3.4030   -2.3970    0.0000 C.2     1  UNL1        0.3367
     58 C           7.7331   -5.8970    0.0000 C.3     1  UNL1        0.1406
     59 C           7.7331   -6.8970    0.0000 C.3     1  UNL1        0.1144
     60 C           6.0010   -6.8970    0.0000 C.3     1  UNL1        0.1130
     61 C           6.8671   -7.3970    0.0000 C.3     1  UNL1        0.1119
     62 C           5.1350   -7.3970    0.0000 C.3     1  UNL1        0.0730
     63 C           9.4651   -5.8970    0.0000 C.3     1  UNL1        0.1884
     64 C          10.3312   -5.3970    0.0000 C.3     1  UNL1        0.1341
     65 C          11.1972   -5.8970    0.0000 C.3     1  UNL1        0.1140
     66 C          10.3312   -7.3970    0.0000 C.3     1  UNL1        0.0873
     67 C          11.1972   -6.8970    0.0000 C.3     1  UNL1        0.1095
     68 C          10.3312   -8.3970    0.0000 C.3     1  UNL1       -0.0361
     69 H           7.6385    1.3721    0.0000 H       1  UNL1        0.0315
     70 H           8.5314   -0.1853    0.0000 H       1  UNL1        0.0313
     71 H           9.2921    1.7009    0.0000 H       1  UNL1        0.0271
     72 H           8.8824    2.3860    0.0000 H       1  UNL1        0.0271
     73 H           8.9079    0.1771    0.0000 H       1  UNL1        0.0268
     74 H           9.3017    0.8715    0.0000 H       1  UNL1        0.0268
     75 H           6.1502    4.3994    0.0000 H       1  UNL1        0.0352
     76 H           5.4251    2.4019    0.0000 H       1  UNL1        0.0310
     77 H           5.8263    1.7131    0.0000 H       1  UNL1        0.0310
     78 H           5.7398    0.8201    0.0000 H       1  UNL1        0.0271
     79 H           5.3300    0.1350    0.0000 H       1  UNL1        0.0271
     80 H           8.8791    3.2291    0.0000 H       1  UNL1        0.0274
     81 H           9.2836    3.9173    0.0000 H       1  UNL1        0.0274
     82 H           9.2868    4.7467    0.0000 H       1  UNL1        0.0272
     83 H           8.8876    5.4381    0.0000 H       1  UNL1        0.0272
     84 H           8.8623    1.8705    0.0000 H       1  UNL1        0.0235
     85 H           9.3624    2.5907    0.0000 H       1  UNL1        0.0235
     86 H           8.6422    3.0908    0.0000 H       1  UNL1        0.0235
     87 H           7.4046   -1.7060    0.0000 H       1  UNL1        0.0603
     88 H           5.4941    3.6045    0.0000 H       1  UNL1        0.0572
     89 H           6.3400    1.7974    0.0000 H       1  UNL1        0.0235
     90 H           5.4922    1.5737    0.0000 H       1  UNL1        0.0235
     91 H           5.7158    0.7259    0.0000 H       1  UNL1        0.0235
     92 H           5.3199   -0.7377    0.0000 H       1  UNL1        0.0290
     93 H           5.7137   -1.4321    0.0000 H       1  UNL1        0.0290
     94 H           8.6444    2.5224    0.0000 H       1  UNL1        0.0238
     95 H           9.3607    3.0281    0.0000 H       1  UNL1        0.0238
     96 H           8.8550    3.7444    0.0000 H       1  UNL1        0.0238
     97 H           5.3095    5.4526    0.0000 H       1  UNL1        0.0282
     98 H           5.7246    4.7706    0.0000 H       1  UNL1        0.0282
     99 H           7.7752    7.0775    0.0000 H       1  UNL1        0.0599
    100 H           9.3855   -0.6266    0.0000 H       1  UNL1        0.0563
    101 H           8.6922   -0.2334    0.0000 H       1  UNL1        0.0563
    102 H           7.7767   -2.0272    0.0000 H       1  UNL1        0.0237
    103 H           8.6254   -2.2476    0.0000 H       1  UNL1        0.0237
    104 H           8.8458   -1.3989    0.0000 H       1  UNL1        0.0237
    105 H           7.2302    7.4739    0.0000 H       1  UNL1        0.0301
    106 H           6.4319    7.4677    0.0000 H       1  UNL1        0.0301
    107 H           8.9486    5.3492    0.0000 H       1  UNL1        0.0236
    108 H           9.1657    6.1987    0.0000 H       1  UNL1        0.0236
    109 H           8.3162    6.4158    0.0000 H       1  UNL1        0.0236
    110 H           4.8920    7.0476    0.0000 H       1  UNL1        0.0240
    111 H           4.2816    6.4181    0.0000 H       1  UNL1        0.0240
    112 H           4.9111    5.8077    0.0000 H       1  UNL1        0.0240
    113 H           8.6424    7.5775    0.0000 H       1  UNL1        0.2098
    114 H           6.0010   -2.2770    0.0000 H       1  UNL1        0.0938
    115 H           9.9312   -1.7005    0.0000 H       1  UNL1        0.2094
    116 H           6.5380   -3.5870    0.0000 H       1  UNL1        0.0675
    117 H           5.5565    8.7070    0.0000 H       1  UNL1        0.2951
    118 H           5.6720   -4.7070    0.0000 H       1  UNL1        0.0648
    119 H           4.2690   -2.2770    0.0000 H       1  UNL1        0.0741
    120 H           3.7320   -3.5870    0.0000 H       1  UNL1        0.0652
    121 H           7.4040   -5.0870    0.0000 H       1  UNL1        0.0938
    122 H           4.5981   -5.7070    0.0000 H       1  UNL1        0.2100
    123 H           3.4030   -5.0170    0.0000 H       1  UNL1        0.2100
    124 H           8.2700   -6.2070    0.0000 H       1  UNL1        0.0675
    125 H           7.7331   -7.5170    0.0000 H       1  UNL1        0.0648
    126 H           5.4641   -6.5870    0.0000 H       1  UNL1        0.0647
    127 H           2.0000   -2.5870    0.0000 H       1  UNL1        0.2951
    128 H           6.3301   -7.7070    0.0000 H       1  UNL1        0.0647
    129 H           4.9230   -6.8144    0.0000 H       1  UNL1        0.0584
    130 H           4.5244   -7.5047    0.0000 H       1  UNL1        0.0584
    131 H           9.4651   -5.2770    0.0000 H       1  UNL1        0.0938
    132 H           8.5991   -8.0170    0.0000 H       1  UNL1        0.2100
    133 H           7.4040   -8.7070    0.0000 H       1  UNL1        0.2100
    134 H          10.8681   -5.0870    0.0000 H       1  UNL1        0.0671
    135 H          11.7341   -6.2070    0.0000 H       1  UNL1        0.0648
    136 H           4.5981   -8.7070    0.0000 H       1  UNL1        0.2095
    137 H           9.7942   -7.7070    0.0000 H       1  UNL1        0.0621
    138 H          11.1972   -7.5170    0.0000 H       1  UNL1        0.0646
    139 H          10.8681   -4.0870    0.0000 H       1  UNL1        0.2101
    140 H           9.7112   -8.3970    0.0000 H       1  UNL1        0.0255
    141 H          10.3312   -9.0170    0.0000 H       1  UNL1        0.0255
    142 H          10.9512   -8.3970    0.0000 H       1  UNL1        0.0255
    143 H          12.6002   -5.7070    0.0000 H       1  UNL1        0.2100
    144 H          12.0632   -8.0170    0.0000 H       1  UNL1        0.2100
@<TRIPOS>BOND
     1    37     1    1
     2    51     1    1
     3    43     2    1
     4     2   113    1
     5     3    45    1
     6     3   115    1
     7     4    51    1
     8     4    54    1
     9     5    50    1
    10     5   117    1
    11     6    50    2
    12    52     7    1
    13    56     7    1
    14    53     8    1
    15     8   122    1
    16    55     9    1
    17     9   123    1
    18    10    56    1
    19    10    60    1
    20    11    57    1
    21    11   127    1
    22    12    57    2
    23    58    13    1
    24    63    13    1
    25    59    14    1
    26    14   132    1
    27    61    15    1
    28    15   133    1
    29    16    63    1
    30    16    66    1
    31    17    62    1
    32    17   136    1
    33    64    18    1
    34    18   139    1
    35    65    19    1
    36    19   143    1
    37    67    20    1
    38    20   144    1
    39    21    22    1
    40    21    24    1
    41    21    26    1
    42    21    36    1
    43    22    23    1
    44    22    32    1
    45    22    69    1
    46    23    25    1
    47    23    33    1
    48    23    39    1
    49    24    28    1
    50    24    34    1
    51    24    41    1
    52    25    27    1
    53    25    29    1
    54    25    70    1
    55    26    29    1
    56    26    71    1
    57    26    72    1
    58    27    37    1
    59    27    45    1
    60    27    46    1
    61    28    30    1
    62    28    38    2
    63    29    73    1
    64    29    74    1
    65    30    31    1
    66    30    42    1
    67    30    75    1
    68    31    35    1
    69    31    43    1
    70    31    48    1
    71    32    38    1
    72    32    76    1
    73    32    77    1
    74    33    40    1
    75    33    78    1
    76    33    79    1
    77    34    35    1
    78    34    80    1
    79    34    81    1
    80    35    82    1
    81    35    83    1
    82    36    84    1
    83    36    85    1
    84    36    86    1
    85    37    40    1
    86    37    87    1
    87    38    88    1
    88    39    89    1
    89    39    90    1
    90    39    91    1
    91    40    92    1
    92    40    93    1
    93    41    94    1
    94    41    95    1
    95    41    96    1
    96    42    44    1
    97    42    97    1
    98    42    98    1
    99    43    47    1
   100    43    99    1
   101    44    47    1
   102    44    49    1
   103    44    50    1
   104    45   100    1
   105    45   101    1
   106    46   102    1
   107    46   103    1
   108    46   104    1
   109    47   105    1
   110    47   106    1
   111    48   107    1
   112    48   108    1
   113    48   109    1
   114    49   110    1
   115    49   111    1
   116    49   112    1
   117    51    52    1
   118    51   114    1
   119    52    53    1
   120    52   116    1
   121    53    55    1
   122    53   118    1
   123    54    55    1
   124    54    57    1
   125    54   119    1
   126    55   120    1
   127    56    58    1
   128    56   121    1
   129    58    59    1
   130    58   124    1
   131    59    61    1
   132    59   125    1
   133    60    61    1
   134    60    62    1
   135    60   126    1
   136    61   128    1
   137    62   129    1
   138    62   130    1
   139    63    64    1
   140    63   131    1
   141    64    65    1
   142    64   134    1
   143    65    67    1
   144    65   135    1
   145    66    67    1
   146    66    68    1
   147    66   137    1
   148    67   138    1
   149    68   140    1
   150    68   141    1
   151    68   142    1
