@<TRIPOS>MOLECULE
IMPHY002260
 56 58 0 0 0
SMALL
GASTEIGER

@<TRIPOS>ATOM
      1 O           8.0712   -1.6639    0.0000 O.3     1  UNL1       -0.4572
      2 O           7.2622    1.9239    0.0000 O.3     1  UNL1       -0.4632
      3 O           3.7320    0.9481    0.0000 O.3     1  UNL1       -0.4610
      4 O           8.3500   -3.4239    0.0000 O.2     1  UNL1       -0.2508
      5 O           8.1282    3.4239    0.0000 O.2     1  UNL1       -0.2546
      6 O           2.8602   -0.5486    0.0000 O.2     1  UNL1       -0.2512
      7 C           6.3961   -0.5761    0.0000 C.3     1  UNL1        0.0150
      8 C           6.3961    0.4239    0.0000 C.3     1  UNL1        0.0137
      9 C           7.2622   -1.0761    0.0000 C.3     1  UNL1        0.1224
     10 C           5.5022    0.9586    0.0000 C.3     1  UNL1        0.0090
     11 C           8.1282   -0.5761    0.0000 C.3     1  UNL1        0.0001
     12 C           7.2622    0.9239    0.0000 C.3     1  UNL1        0.1072
     13 C           5.5022   -1.1107    0.0000 C.3     1  UNL1       -0.0402
     14 C           8.1282    0.4239    0.0000 C.3     1  UNL1       -0.0092
     15 C           4.5961    0.4447    0.0000 C.3     1  UNL1        0.1085
     16 C           4.5961   -0.5969    0.0000 C.3     1  UNL1       -0.0145
     17 C           6.4532   -1.6639    0.0000 C.3     1  UNL1       -0.0020
     18 C           5.8963   -1.4422    0.0000 C.3     1  UNL1       -0.0555
     19 C           5.0122    1.8303    0.0000 C.3     1  UNL1       -0.0561
     20 C           6.0122    1.8188    0.0000 C.3     1  UNL1       -0.0561
     21 C           6.7622   -2.6149    0.0000 C.3     1  UNL1        0.0486
     22 C           8.9942   -1.0761    0.0000 C.3     1  UNL1       -0.0586
     23 C           7.7622   -2.6149    0.0000 C.2     1  UNL1        0.3078
     24 C           8.1282    2.4239    0.0000 C.2     1  UNL1        0.2945
     25 C           2.8641    0.4514    0.0000 C.2     1  UNL1        0.3042
     26 C           2.0000    0.9548    0.0000 C.3     1  UNL1        0.0332
     27 H           6.4027    1.2739    0.0000 H       1  UNL1        0.0349
     28 H           8.1282   -1.1961    0.0000 H       1  UNL1        0.0338
     29 H           7.7991    1.2339    0.0000 H       1  UNL1        0.0737
     30 H           5.1086   -1.5898    0.0000 H       1  UNL1        0.0273
     31 H           5.9068   -1.5805    0.0000 H       1  UNL1        0.0273
     32 H           8.7388    0.3163    0.0000 H       1  UNL1        0.0305
     33 H           8.3402    1.0065    0.0000 H       1  UNL1        0.0305
     34 H           4.5997    1.0647    0.0000 H       1  UNL1        0.0739
     35 H           3.9853   -0.4908    0.0000 H       1  UNL1        0.0301
     36 H           4.3871   -1.1806    0.0000 H       1  UNL1        0.0301
     37 H           6.1432   -1.1269    0.0000 H       1  UNL1        0.0309
     38 H           5.8868   -1.9160    0.0000 H       1  UNL1        0.0309
     39 H           5.3593   -1.1323    0.0000 H       1  UNL1        0.0236
     40 H           5.5864   -1.9792    0.0000 H       1  UNL1        0.0236
     41 H           6.4333   -1.7521    0.0000 H       1  UNL1        0.0236
     42 H           6.5455    1.5026    0.0000 H       1  UNL1        0.0236
     43 H           6.3284    2.3521    0.0000 H       1  UNL1        0.0236
     44 H           5.5527    2.1341    0.0000 H       1  UNL1        0.0236
     45 H           4.7085    2.3708    0.0000 H       1  UNL1        0.0236
     46 H           4.4718    1.5266    0.0000 H       1  UNL1        0.0236
     47 H           5.4789    2.1350    0.0000 H       1  UNL1        0.0236
     48 H           6.1557   -2.7438    0.0000 H       1  UNL1        0.0379
     49 H           6.8270   -3.2315    0.0000 H       1  UNL1        0.0379
     50 H           8.6842   -1.6130    0.0000 H       1  UNL1        0.0234
     51 H           9.5312   -1.3861    0.0000 H       1  UNL1        0.0234
     52 H           9.3042   -0.5391    0.0000 H       1  UNL1        0.0234
     53 H           8.6651    2.1139    0.0000 H       1  UNL1        0.1512
     54 H           2.3121    1.4905    0.0000 H       1  UNL1        0.0342
     55 H           1.4643    1.2668    0.0000 H       1  UNL1        0.0342
     56 H           1.6879    0.4190    0.0000 H       1  UNL1        0.0342
@<TRIPOS>BOND
     1     9     1    1
     2     1    23    1
     3    12     2    1
     4     2    24    1
     5    15     3    1
     6     3    25    1
     7     4    23    2
     8     5    24    2
     9     6    25    2
    10     7     8    1
    11     7     9    1
    12     7    13    1
    13     7    18    1
    14     8    10    1
    15     8    12    1
    16     8    27    1
    17     9    11    1
    18     9    17    1
    19    10    15    1
    20    10    19    1
    21    10    20    1
    22    11    14    1
    23    11    22    1
    24    11    28    1
    25    12    14    1
    26    12    29    1
    27    13    16    1
    28    13    30    1
    29    13    31    1
    30    14    32    1
    31    14    33    1
    32    15    16    1
    33    15    34    1
    34    16    35    1
    35    16    36    1
    36    17    21    1
    37    17    37    1
    38    17    38    1
    39    18    39    1
    40    18    40    1
    41    18    41    1
    42    19    44    1
    43    19    45    1
    44    19    46    1
    45    20    42    1
    46    20    43    1
    47    20    47    1
    48    21    23    1
    49    21    48    1
    50    21    49    1
    51    22    50    1
    52    22    51    1
    53    22    52    1
    54    24    53    1
    55    25    26    1
    56    26    54    1
    57    26    55    1
    58    26    56    1
