@<TRIPOS>MOLECULE
IMPHY016429
 17 16 0 0 0
SMALL
GASTEIGER

@<TRIPOS>ATOM
      1 O           6.3301   -0.0600    0.0000 O.2     1  UNL1       -0.2963
      2 C           2.8660   -0.0600    0.0000 C.3     1  UNL1       -0.0282
      3 C           2.0000    0.4400    0.0000 C.3     1  UNL1       -0.0592
      4 C           2.8660   -1.0600    0.0000 C.3     1  UNL1       -0.0592
      5 C           3.7320    0.4400    0.0000 C.2     1  UNL1       -0.0784
      6 C           4.5981   -0.0600    0.0000 C.2     1  UNL1       -0.0261
      7 C           5.4641    0.4400    0.0000 C.2     1  UNL1        0.1428
      8 H           2.8660    0.5600    0.0000 H       1  UNL1        0.0338
      9 H           2.3100    0.9769    0.0000 H       1  UNL1        0.0235
     10 H           1.4631    0.7500    0.0000 H       1  UNL1        0.0235
     11 H           1.6900   -0.0969    0.0000 H       1  UNL1        0.0235
     12 H           2.2460   -1.0600    0.0000 H       1  UNL1        0.0235
     13 H           2.8660   -1.6800    0.0000 H       1  UNL1        0.0235
     14 H           3.4860   -1.0600    0.0000 H       1  UNL1        0.0235
     15 H           3.7320    1.0600    0.0000 H       1  UNL1        0.0576
     16 H           4.5981   -0.6800    0.0000 H       1  UNL1        0.0646
     17 H           5.4641    1.0600    0.0000 H       1  UNL1        0.1075
@<TRIPOS>BOND
     1     1     7    2
     2     2     3    1
     3     2     4    1
     4     2     5    1
     5     2     8    1
     6     3     9    1
     7     3    10    1
     8     3    11    1
     9     4    12    1
    10     4    13    1
    11     4    14    1
    12     5     6    2
    13     5    15    1
    14     6     7    1
    15     6    16    1
    16     7    17    1
