@<TRIPOS>MOLECULE
IMPHY010178
 50 52 0 0 0
SMALL
GASTEIGER

@<TRIPOS>ATOM
      1 O           5.1533   -1.7574    0.0000 O.3     1  UNL1       -0.5031
      2 O           3.1914   -1.1688    0.0000 O.3     1  UNL1       -0.5031
      3 C           8.6871    1.2323    0.0000 C.3     1  UNL1       -0.0281
      4 C           7.6966    0.9099    0.0000 C.3     1  UNL1       -0.0141
      5 C           9.4561    0.5297    0.0000 C.3     1  UNL1       -0.0439
      6 C           7.4741   -0.0650    0.0000 C.2     1  UNL1       -0.0654
      7 C           7.0731    1.6918    0.0000 C.3     1  UNL1       -0.0420
      8 C           9.2243   -0.4858    0.0000 C.3     1  UNL1       -0.0340
      9 C           9.3588    1.9731    0.0000 C.3     1  UNL1       -0.0593
     10 C           8.3813    2.1844    0.0000 C.3     1  UNL1       -0.0593
     11 C           6.5731   -0.4989    0.0000 C.3     1  UNL1       -0.0024
     12 C           6.0731    1.6918    0.0000 C.3     1  UNL1       -0.0267
     13 C           8.2266   -0.7852    0.0000 C.2     1  UNL1       -0.0842
     14 C           5.4496    0.9100    0.0000 C.ar    1  UNL1       -0.0399
     15 C           5.6721   -0.0650    0.0000 C.ar    1  UNL1        0.0049
     16 C           4.4591    1.2323    0.0000 C.ar    1  UNL1       -0.0512
     17 C           4.9196   -0.7851    0.0000 C.ar    1  UNL1        0.1623
     18 C           3.6901    0.5297    0.0000 C.ar    1  UNL1        0.0005
     19 C           3.9219   -0.4858    0.0000 C.ar    1  UNL1        0.1620
     20 C           2.7357    0.8282    0.0000 C.3     1  UNL1       -0.0179
     21 C           2.5169    1.8040    0.0000 C.3     1  UNL1       -0.0585
     22 C           2.0000    0.1508    0.0000 C.3     1  UNL1       -0.0585
     23 H           7.9409    1.7241    0.0000 H       1  UNL1        0.0351
     24 H          10.0280    0.2903    0.0000 H       1  UNL1        0.0274
     25 H           9.7898    1.0522    0.0000 H       1  UNL1        0.0274
     26 H           7.6317    1.9608    0.0000 H       1  UNL1        0.0274
     27 H           6.9352    2.2962    0.0000 H       1  UNL1        0.0274
     28 H           9.2982   -1.1014    0.0000 H       1  UNL1        0.0308
     29 H           9.8435   -0.5183    0.0000 H       1  UNL1        0.0308
     30 H           9.8181    1.5567    0.0000 H       1  UNL1        0.0235
     31 H           9.7752    2.4325    0.0000 H       1  UNL1        0.0235
     32 H           8.8994    2.3896    0.0000 H       1  UNL1        0.0235
     33 H           8.9716    2.3739    0.0000 H       1  UNL1        0.0235
     34 H           8.1917    2.7747    0.0000 H       1  UNL1        0.0235
     35 H           7.7910    1.9948    0.0000 H       1  UNL1        0.0235
     36 H           6.1865   -0.9836    0.0000 H       1  UNL1        0.0360
     37 H           6.9596   -0.9836    0.0000 H       1  UNL1        0.0360
     38 H           6.2111    2.2962    0.0000 H       1  UNL1        0.0313
     39 H           5.5145    1.9608    0.0000 H       1  UNL1        0.0313
     40 H           8.0817   -1.3880    0.0000 H       1  UNL1        0.0572
     41 H           4.3282    1.8383    0.0000 H       1  UNL1        0.0624
     42 H           2.1439    1.0132    0.0000 H       1  UNL1        0.0345
     43 H           4.7038   -2.1844    0.0000 H       1  UNL1        0.2923
     44 H           1.5800    0.6069    0.0000 H       1  UNL1        0.0235
     45 H           1.5439   -0.2691    0.0000 H       1  UNL1        0.0235
     46 H           2.4200   -0.3053    0.0000 H       1  UNL1        0.0235
     47 H           3.1219    1.9396    0.0000 H       1  UNL1        0.0235
     48 H           2.3813    2.4089    0.0000 H       1  UNL1        0.0235
     49 H           1.9119    1.6683    0.0000 H       1  UNL1        0.0235
     50 H           3.3317   -1.7727    0.0000 H       1  UNL1        0.2923
@<TRIPOS>BOND
     1     1    17    1
     2     1    43    1
     3     2    19    1
     4     2    50    1
     5     3     4    1
     6     3     5    1
     7     3     9    1
     8     3    10    1
     9     4     6    1
    10     4     7    1
    11     4    23    1
    12     5     8    1
    13     5    24    1
    14     5    25    1
    15     6    11    1
    16     6    13    2
    17     7    12    1
    18     7    26    1
    19     7    27    1
    20     8    13    1
    21     8    28    1
    22     8    29    1
    23     9    30    1
    24     9    31    1
    25     9    32    1
    26    10    33    1
    27    10    34    1
    28    10    35    1
    29    11    15    1
    30    11    36    1
    31    11    37    1
    32    12    14    1
    33    12    38    1
    34    12    39    1
    35    13    40    1
    36    14    15   ar
    37    14    16   ar
    38    15    17   ar
    39    16    18   ar
    40    16    41    1
    41    17    19   ar
    42    18    19   ar
    43    18    20    1
    44    20    21    1
    45    20    22    1
    46    20    42    1
    47    21    47    1
    48    21    48    1
    49    21    49    1
    50    22    44    1
    51    22    45    1
    52    22    46    1
