@<TRIPOS>MOLECULE
IMPHY003879
 101 108 0 0 0
SMALL
GASTEIGER

@<TRIPOS>ATOM
      1 O           6.8671   -3.5141    0.0000 O.3     1  UNL1       -0.4601
      2 O          10.4454    3.5141    0.0000 O.3     1  UNL1       -0.4601
      3 O           5.1350   -3.5141    0.0000 O.3     1  UNL1       -0.3313
      4 O          12.1774    3.5141    0.0000 O.3     1  UNL1       -0.3313
      5 O           6.8671   -5.5141    0.0000 O.3     1  UNL1       -0.3829
      6 O          10.4454    5.5141    0.0000 O.3     1  UNL1       -0.3829
      7 O           5.1350   -6.5141    0.0000 O.3     1  UNL1       -0.3864
      8 O          12.1774    6.5141    0.0000 O.3     1  UNL1       -0.3864
      9 O           3.4030   -5.5141    0.0000 O.3     1  UNL1       -0.3865
     10 O          13.9095    5.5141    0.0000 O.3     1  UNL1       -0.3865
     11 O           8.6158   -3.4998    0.0000 O.2     1  UNL1       -0.2864
     12 O           8.6967    3.4998    0.0000 O.2     1  UNL1       -0.2864
     13 O          10.3636   -3.5546    0.0000 O.3     1  UNL1       -0.5060
     14 O           6.9488    3.5546    0.0000 O.3     1  UNL1       -0.5060
     15 O           2.5369   -4.0141    0.0000 O.3     1  UNL1       -0.3924
     16 O          14.7755    4.0141    0.0000 O.3     1  UNL1       -0.3924
     17 O          13.0428   -1.0233    0.0000 O.3     1  UNL1       -0.3904
     18 O           4.2697    1.0233    0.0000 O.3     1  UNL1       -0.4771
     19 O           5.1241   -0.4833    0.0000 O.2     1  UNL1       -0.2451
     20 C           8.6504   -0.5000    0.0000 C.3     1  UNL1        0.0216
     21 C           8.6620    0.5000    0.0000 C.3     1  UNL1        0.0217
     22 C           7.7787   -0.9899    0.0000 C.ar    1  UNL1       -0.0247
     23 C           9.5338    0.9899    0.0000 C.ar    1  UNL1       -0.0247
     24 C           9.5106   -1.0099    0.0000 C.ar    1  UNL1       -0.0244
     25 C           7.8018    1.0099    0.0000 C.ar    1  UNL1       -0.0240
     26 C           7.7671   -1.9898    0.0000 C.ar    1  UNL1        0.0679
     27 C           9.5453    1.9898    0.0000 C.ar    1  UNL1        0.0679
     28 C           9.4991   -2.0099    0.0000 C.ar    1  UNL1        0.0675
     29 C           7.8134    2.0099    0.0000 C.ar    1  UNL1        0.0675
     30 C           8.6273   -2.4998    0.0000 C.2     1  UNL1        0.2007
     31 C           8.6851    2.4998    0.0000 C.2     1  UNL1        0.2007
     32 C           6.0010   -4.0141    0.0000 C.3     1  UNL1        0.2308
     33 C           6.0010   -5.0141    0.0000 C.3     1  UNL1        0.1454
     34 C          11.3114    4.0141    0.0000 C.3     1  UNL1        0.2308
     35 C          11.3114    5.0141    0.0000 C.3     1  UNL1        0.1454
     36 C           5.1350   -5.5141    0.0000 C.3     1  UNL1        0.1152
     37 C          12.1774    5.5141    0.0000 C.3     1  UNL1        0.1152
     38 C           6.8671   -2.5141    0.0000 C.ar    1  UNL1        0.1351
     39 C          10.4454    2.5141    0.0000 C.ar    1  UNL1        0.1351
     40 C          10.4107   -0.4857    0.0000 C.ar    1  UNL1       -0.0517
     41 C           4.2690   -5.0141    0.0000 C.3     1  UNL1        0.1120
     42 C          13.0435    5.0141    0.0000 C.3     1  UNL1        0.1120
     43 C           6.8910   -0.4450    0.0000 C.ar    1  UNL1       -0.0571
     44 C          10.4215    0.4450    0.0000 C.ar    1  UNL1       -0.0571
     45 C           6.9018    0.4857    0.0000 C.ar    1  UNL1       -0.0431
     46 C           4.2690   -4.0141    0.0000 C.3     1  UNL1        0.1140
     47 C          13.0435    4.0141    0.0000 C.3     1  UNL1        0.1140
     48 C          10.3868   -2.5548    0.0000 C.ar    1  UNL1        0.1283
     49 C           6.9257    2.5548    0.0000 C.ar    1  UNL1        0.1287
     50 C          11.3108   -1.0099    0.0000 C.ar    1  UNL1       -0.0184
     51 C           5.9670   -1.9898    0.0000 C.ar    1  UNL1       -0.0191
     52 C          11.3454    1.9898    0.0000 C.ar    1  UNL1       -0.0191
     53 C           5.9790   -0.9483    0.0000 C.ar    1  UNL1       -0.0580
     54 C          11.3334    0.9483    0.0000 C.ar    1  UNL1       -0.0580
     55 C           6.0017    1.0099    0.0000 C.ar    1  UNL1        0.0626
     56 C          11.2987   -2.0515    0.0000 C.ar    1  UNL1       -0.0141
     57 C           6.0137    2.0515    0.0000 C.ar    1  UNL1       -0.0055
     58 C           3.4030   -3.5141    0.0000 C.3     1  UNL1        0.0731
     59 C          13.9095    3.5141    0.0000 C.3     1  UNL1        0.0731
     60 C          12.1806   -0.5166    0.0000 C.3     1  UNL1        0.0694
     61 C           5.1318    0.5166    0.0000 C.2     1  UNL1        0.3369
     62 H           9.3914   -0.0835    0.0000 H       1  UNL1        0.0407
     63 H           7.9210    0.0835    0.0000 H       1  UNL1        0.0407
     64 H           6.5380   -4.3241    0.0000 H       1  UNL1        0.1084
     65 H           6.0010   -5.6341    0.0000 H       1  UNL1        0.0683
     66 H          11.3114    3.3941    0.0000 H       1  UNL1        0.1084
     67 H          10.7745    4.7041    0.0000 H       1  UNL1        0.0683
     68 H           4.5981   -5.8241    0.0000 H       1  UNL1        0.0648
     69 H          11.6405    5.8241    0.0000 H       1  UNL1        0.0648
     70 H           4.2690   -5.6341    0.0000 H       1  UNL1        0.0647
     71 H          10.4107    0.1343    0.0000 H       1  UNL1        0.0624
     72 H          13.0435    5.6341    0.0000 H       1  UNL1        0.0647
     73 H           6.9053    0.1749    0.0000 H       1  UNL1        0.0621
     74 H          10.4071   -0.1749    0.0000 H       1  UNL1        0.0621
     75 H           4.2690   -3.3941    0.0000 H       1  UNL1        0.0647
     76 H          13.0435    3.3941    0.0000 H       1  UNL1        0.0647
     77 H           6.9018   -0.1343    0.0000 H       1  UNL1        0.0629
     78 H           5.4277   -2.2957    0.0000 H       1  UNL1        0.0654
     79 H          11.8848    2.2957    0.0000 H       1  UNL1        0.0654
     80 H           5.4470   -0.6300    0.0000 H       1  UNL1        0.0619
     81 H          11.8655    0.6300    0.0000 H       1  UNL1        0.0619
     82 H          11.8308   -2.3697    0.0000 H       1  UNL1        0.0658
     83 H           5.4816    2.3697    0.0000 H       1  UNL1        0.0662
     84 H           3.8015   -3.0392    0.0000 H       1  UNL1        0.0584
     85 H           3.0044   -3.0392    0.0000 H       1  UNL1        0.0584
     86 H          13.5110    3.0392    0.0000 H       1  UNL1        0.0584
     87 H          14.3080    3.0392    0.0000 H       1  UNL1        0.0584
     88 H          12.5828   -0.0448    0.0000 H       1  UNL1        0.0607
     89 H          11.7858   -0.0386    0.0000 H       1  UNL1        0.0607
     90 H           6.8671   -6.1341    0.0000 H       1  UNL1        0.2102
     91 H          10.4454    6.1341    0.0000 H       1  UNL1        0.2102
     92 H           4.5981   -6.8241    0.0000 H       1  UNL1        0.2100
     93 H          12.7144    6.8241    0.0000 H       1  UNL1        0.2100
     94 H           3.4030   -6.1341    0.0000 H       1  UNL1        0.2100
     95 H          13.9095    6.1341    0.0000 H       1  UNL1        0.2100
     96 H          10.8933   -3.8769    0.0000 H       1  UNL1        0.2922
     97 H           6.4192    3.8769    0.0000 H       1  UNL1        0.2922
     98 H           2.0000   -3.7041    0.0000 H       1  UNL1        0.2095
     99 H          15.3124    3.7041    0.0000 H       1  UNL1        0.2095
    100 H          13.5821   -0.7174    0.0000 H       1  UNL1        0.2098
    101 H           4.2745    1.6433    0.0000 H       1  UNL1        0.2954
@<TRIPOS>BOND
     1    32     1    1
     2     1    38    1
     3    34     2    1
     4     2    39    1
     5     3    32    1
     6     3    46    1
     7     4    34    1
     8     4    47    1
     9    33     5    1
    10     5    90    1
    11    35     6    1
    12     6    91    1
    13    36     7    1
    14     7    92    1
    15    37     8    1
    16     8    93    1
    17    41     9    1
    18     9    94    1
    19    42    10    1
    20    10    95    1
    21    11    30    2
    22    12    31    2
    23    13    48    1
    24    13    96    1
    25    14    49    1
    26    14    97    1
    27    15    58    1
    28    15    98    1
    29    16    59    1
    30    16    99    1
    31    17    60    1
    32    17   100    1
    33    18    61    1
    34    18   101    1
    35    19    61    2
    36    20    21    1
    37    20    22    1
    38    20    24    1
    39    20    62    1
    40    21    23    1
    41    21    25    1
    42    21    63    1
    43    22    26   ar
    44    22    43   ar
    45    23    27   ar
    46    23    44   ar
    47    24    28   ar
    48    24    40   ar
    49    25    29   ar
    50    25    45   ar
    51    26    30    1
    52    26    38   ar
    53    27    31    1
    54    27    39   ar
    55    28    30    1
    56    28    48   ar
    57    29    31    1
    58    29    49   ar
    59    32    33    1
    60    32    64    1
    61    33    36    1
    62    33    65    1
    63    34    35    1
    64    34    66    1
    65    35    37    1
    66    35    67    1
    67    36    41    1
    68    36    68    1
    69    37    42    1
    70    37    69    1
    71    38    51   ar
    72    39    52   ar
    73    40    50   ar
    74    40    71    1
    75    41    46    1
    76    41    70    1
    77    42    47    1
    78    42    72    1
    79    43    53   ar
    80    43    73    1
    81    44    54   ar
    82    44    74    1
    83    45    55   ar
    84    45    77    1
    85    46    58    1
    86    46    75    1
    87    47    59    1
    88    47    76    1
    89    48    56   ar
    90    49    57   ar
    91    50    56   ar
    92    50    60    1
    93    51    53   ar
    94    51    78    1
    95    52    54   ar
    96    52    79    1
    97    53    80    1
    98    54    81    1
    99    55    57   ar
   100    55    61    1
   101    56    82    1
   102    57    83    1
   103    58    84    1
   104    58    85    1
   105    59    86    1
   106    59    87    1
   107    60    88    1
   108    60    89    1
