@<TRIPOS>MOLECULE
IMPHY012474
 81 85 0 0 0
SMALL
GASTEIGER

@<TRIPOS>ATOM
      1 O           2.5357   -2.6896    0.0000 O.3     1  UNL1       -0.3912
      2 C           7.0628   -1.1372    0.0000 C.3     1  UNL1       -0.0231
      3 C           7.9288   -0.6372    0.0000 C.3     1  UNL1       -0.0233
      4 C           6.1968   -0.6372    0.0000 C.3     1  UNL1       -0.0294
      5 C           7.9288    0.3628    0.0000 C.3     1  UNL1       -0.0313
      6 C           5.2868   -1.1441    0.0000 C.3     1  UNL1       -0.0252
      7 C           8.8228    0.8974    0.0000 C.3     1  UNL1       -0.0258
      8 C           9.7288    0.3836    0.0000 C.3     1  UNL1       -0.0284
      9 C           5.2787   -2.1857    0.0000 C.3     1  UNL1       -0.0278
     10 C           8.8228   -1.1719    0.0000 C.3     1  UNL1       -0.0464
     11 C           7.0789   -2.1788    0.0000 C.3     1  UNL1       -0.0466
     12 C           6.1968    0.3628    0.0000 C.3     1  UNL1       -0.0489
     13 C           7.0628    0.8628    0.0000 C.3     1  UNL1       -0.0491
     14 C           9.7288   -0.6581    0.0000 C.3     1  UNL1       -0.0468
     15 C           6.1808   -2.7065    0.0000 C.3     1  UNL1       -0.0486
     16 C           9.0329    1.9113    0.0000 C.3     1  UNL1       -0.0168
     17 C           4.3433   -2.7354    0.0000 C.3     1  UNL1       -0.0056
     18 C           4.3599   -0.5800    0.0000 C.3     1  UNL1       -0.0447
     19 C           7.7056   -1.9033    0.0000 C.3     1  UNL1       -0.0588
     20 C           8.2709   -1.5769    0.0000 C.3     1  UNL1       -0.0588
     21 C          10.4911    1.0843    0.0000 C.3     1  UNL1       -0.0468
     22 C          10.0619    2.0266    0.0000 C.3     1  UNL1       -0.0457
     23 C           5.2945   -0.1441    0.0000 C.3     1  UNL1       -0.0590
     24 C           3.4037   -2.1929    0.0000 C.3     1  UNL1        0.0606
     25 C           3.4120   -1.1080    0.0000 C.3     1  UNL1       -0.0258
     26 C          10.5987   -0.1097    0.0000 C.3     1  UNL1       -0.0593
     27 C           8.3593    2.6505    0.0000 C.2     1  UNL1       -0.0763
     28 C           3.8467   -3.6034    0.0000 C.3     1  UNL1       -0.0572
     29 C           4.8466   -3.5995    0.0000 C.3     1  UNL1       -0.0572
     30 C           8.6626    3.6034    0.0000 C.3     1  UNL1       -0.0438
     31 C           7.3824    2.4367    0.0000 C.2     1  UNL1       -0.0994
     32 H           6.9329   -0.2122    0.0000 H       1  UNL1        0.0312
     33 H           7.9223    1.2127    0.0000 H       1  UNL1        0.0309
     34 H           8.1300    1.3900    0.0000 H       1  UNL1        0.0315
     35 H           5.2820   -3.0357    0.0000 H       1  UNL1        0.0312
     36 H           8.4182   -1.6417    0.0000 H       1  UNL1        0.0271
     37 H           9.2164   -1.6509    0.0000 H       1  UNL1        0.0271
     38 H           7.2969   -2.7592    0.0000 H       1  UNL1        0.0271
     39 H           7.6880   -2.0632    0.0000 H       1  UNL1        0.0271
     40 H           5.9847    0.9454    0.0000 H       1  UNL1        0.0268
     41 H           5.5862    0.2551    0.0000 H       1  UNL1        0.0268
     42 H           7.4613    1.3377    0.0000 H       1  UNL1        0.0268
     43 H           6.6643    1.3377    0.0000 H       1  UNL1        0.0268
     44 H           9.9379   -1.2418    0.0000 H       1  UNL1        0.0271
     45 H          10.3397   -0.5520    0.0000 H       1  UNL1        0.0271
     46 H           5.7835   -3.1825    0.0000 H       1  UNL1        0.0268
     47 H           6.5818   -3.1794    0.0000 H       1  UNL1        0.0268
     48 H           9.2513    2.4916    0.0000 H       1  UNL1        0.0348
     49 H           4.7681   -0.1134    0.0000 H       1  UNL1        0.0271
     50 H           3.9700   -0.0980    0.0000 H       1  UNL1        0.0271
     51 H           7.2306   -2.3018    0.0000 H       1  UNL1        0.0235
     52 H           8.1041   -2.3782    0.0000 H       1  UNL1        0.0235
     53 H           8.1805   -1.5048    0.0000 H       1  UNL1        0.0235
     54 H           7.6884   -1.7890    0.0000 H       1  UNL1        0.0235
     55 H           8.4830   -2.1595    0.0000 H       1  UNL1        0.0235
     56 H           8.8535   -1.3648    0.0000 H       1  UNL1        0.0235
     57 H          10.8604    0.5863    0.0000 H       1  UNL1        0.0271
     58 H          11.0252    1.3992    0.0000 H       1  UNL1        0.0271
     59 H          10.6500    2.2229    0.0000 H       1  UNL1        0.0271
     60 H           9.9285    2.6321    0.0000 H       1  UNL1        0.0271
     61 H           5.9145   -0.1489    0.0000 H       1  UNL1        0.0235
     62 H           5.2993    0.4759    0.0000 H       1  UNL1        0.0235
     63 H           4.6745   -0.1393    0.0000 H       1  UNL1        0.0235
     64 H           3.4025   -2.8129    0.0000 H       1  UNL1        0.0599
     65 H           3.2075   -0.5227    0.0000 H       1  UNL1        0.0290
     66 H           2.8004   -1.2093    0.0000 H       1  UNL1        0.0290
     67 H          10.2928   -0.6490    0.0000 H       1  UNL1        0.0235
     68 H          11.1380   -0.4156    0.0000 H       1  UNL1        0.0235
     69 H          10.9045    0.4296    0.0000 H       1  UNL1        0.0235
     70 H           3.3085   -3.2954    0.0000 H       1  UNL1        0.0236
     71 H           3.5387   -4.1415    0.0000 H       1  UNL1        0.0236
     72 H           4.3848   -3.9113    0.0000 H       1  UNL1        0.0236
     73 H           4.3109   -3.9116    0.0000 H       1  UNL1        0.0236
     74 H           5.1587   -4.1352    0.0000 H       1  UNL1        0.0236
     75 H           5.3824   -3.2874    0.0000 H       1  UNL1        0.0236
     76 H           2.0000   -2.3775    0.0000 H       1  UNL1        0.2098
     77 H           9.2534    3.4153    0.0000 H       1  UNL1        0.0274
     78 H           8.8507    4.1941    0.0000 H       1  UNL1        0.0274
     79 H           8.0718    3.7914    0.0000 H       1  UNL1        0.0274
     80 H           6.9648    2.8950    0.0000 H       1  UNL1        0.0534
     81 H           7.1944    1.8459    0.0000 H       1  UNL1        0.0534
@<TRIPOS>BOND
     1    24     1    1
     2     1    76    1
     3     2     3    1
     4     2     4    1
     5     2    11    1
     6     2    19    1
     7     3     5    1
     8     3    10    1
     9     3    20    1
    10     4     6    1
    11     4    12    1
    12     4    32    1
    13     5     7    1
    14     5    13    1
    15     5    33    1
    16     6     9    1
    17     6    18    1
    18     6    23    1
    19     7     8    1
    20     7    16    1
    21     7    34    1
    22     8    14    1
    23     8    21    1
    24     8    26    1
    25     9    15    1
    26     9    17    1
    27     9    35    1
    28    10    14    1
    29    10    36    1
    30    10    37    1
    31    11    15    1
    32    11    38    1
    33    11    39    1
    34    12    13    1
    35    12    40    1
    36    12    41    1
    37    13    42    1
    38    13    43    1
    39    14    44    1
    40    14    45    1
    41    15    46    1
    42    15    47    1
    43    16    22    1
    44    16    27    1
    45    16    48    1
    46    17    24    1
    47    17    28    1
    48    17    29    1
    49    18    25    1
    50    18    49    1
    51    18    50    1
    52    19    51    1
    53    19    52    1
    54    19    53    1
    55    20    54    1
    56    20    55    1
    57    20    56    1
    58    21    22    1
    59    21    57    1
    60    21    58    1
    61    22    59    1
    62    22    60    1
    63    23    61    1
    64    23    62    1
    65    23    63    1
    66    24    25    1
    67    24    64    1
    68    25    65    1
    69    25    66    1
    70    26    67    1
    71    26    68    1
    72    26    69    1
    73    27    30    1
    74    27    31    2
    75    28    70    1
    76    28    71    1
    77    28    72    1
    78    29    73    1
    79    29    74    1
    80    29    75    1
    81    30    77    1
    82    30    78    1
    83    30    79    1
    84    31    80    1
    85    31    81    1
