@<TRIPOS>MOLECULE
IMPHY008607
 97 100 0 0 0
SMALL
GASTEIGER

@<TRIPOS>ATOM
      1 O           5.6660   -0.6819    0.0000 O.3     1  UNL1       -0.4577
      2 O           2.1359   -0.7060    0.0000 O.2     1  UNL1       -0.2953
      3 O           3.9176    2.3527    0.0000 O.2     1  UNL1       -0.2912
      4 O           7.4144    2.3527    0.0000 O.3     1  UNL1       -0.5059
      5 O          10.9243    2.3489    0.0000 O.2     1  UNL1       -0.5097
      6 O           9.1962   -0.7060    0.0000 O.3     1  UNL1       -0.5055
      7 O           9.2000    0.3423    0.0000 O.2     1  UNL1       -0.2912
      8 O          12.6679   -0.6444    0.0000 O.2     1  UNL1       -0.2953
      9 O           8.2746   -2.2264    0.0000 O.2     1  UNL1       -0.2915
     10 C           5.6660    1.3181    0.0000 C.3     1  UNL1        0.0251
     11 C           3.9061   -0.7165    0.0000 C.3     1  UNL1        0.0823
     12 C           4.8000    0.8181    0.0000 C.2     1  UNL1        0.0427
     13 C           3.0000    0.8389    0.0000 C.3     1  UNL1        0.0866
     14 C           4.8000   -0.1819    0.0000 C.2     1  UNL1        0.1255
     15 C           6.5320    0.8181    0.0000 C.ar    1  UNL1        0.0452
     16 C           9.1962    1.3423    0.0000 C.3     1  UNL1        0.0250
     17 C           5.6660    2.3181    0.0000 C.3     1  UNL1       -0.0354
     18 C           3.0000   -0.2027    0.0000 C.2     1  UNL1        0.1592
     19 C           3.9061    1.3528    0.0000 C.2     1  UNL1        0.1757
     20 C           8.3321    0.8389    0.0000 C.ar    1  UNL1        0.0444
     21 C           6.5320   -0.1819    0.0000 C.ar    1  UNL1        0.1493
     22 C          10.0641    0.8456    0.0000 C.2     1  UNL1        0.0419
     23 C           7.4260    1.3528    0.0000 C.ar    1  UNL1        0.1314
     24 C          11.7961    0.8523    0.0000 C.3     1  UNL1        0.0815
     25 C          10.9359   -0.6510    0.0000 C.3     1  UNL1        0.0866
     26 C           9.1923    2.3423    0.0000 C.3     1  UNL1       -0.0354
     27 C           3.4161   -1.5883    0.0000 C.3     1  UNL1       -0.0460
     28 C           4.4160   -1.5767    0.0000 C.3     1  UNL1       -0.0460
     29 C          10.9282    1.3490    0.0000 C.2     1  UNL1        0.1139
     30 C           7.4260   -0.7165    0.0000 C.ar    1  UNL1        0.1019
     31 C          10.0680   -0.1544    0.0000 C.2     1  UNL1        0.1757
     32 C           2.0000    0.8428    0.0000 C.3     1  UNL1       -0.0459
     33 C           2.5033    1.7069    0.0000 C.3     1  UNL1       -0.0459
     34 C          11.8000   -0.1477    0.0000 C.2     1  UNL1        0.1592
     35 C           8.3321   -0.2027    0.0000 C.ar    1  UNL1        0.1381
     36 C           4.8000    2.8181    0.0000 C.3     1  UNL1       -0.0618
     37 C           6.5320    2.8181    0.0000 C.3     1  UNL1       -0.0618
     38 C          12.7961    0.8561    0.0000 C.3     1  UNL1       -0.0461
     39 C          12.2928    1.7202    0.0000 C.3     1  UNL1       -0.0461
     40 C          11.4392   -1.5151    0.0000 C.3     1  UNL1       -0.0459
     41 C          10.4392   -1.5190    0.0000 C.3     1  UNL1       -0.0459
     42 C          10.0564    2.8456    0.0000 C.3     1  UNL1       -0.0618
     43 C           8.6890    3.2064    0.0000 C.3     1  UNL1       -0.0618
     44 C           7.4144   -1.7165    0.0000 C.2     1  UNL1        0.1727
     45 C           6.5427   -2.2064    0.0000 C.3     1  UNL1        0.0167
     46 C           6.5311   -3.2064    0.0000 C.3     1  UNL1       -0.0556
     47 C           5.6825   -1.6964    0.0000 C.3     1  UNL1       -0.0556
     48 H           5.1291    1.6281    0.0000 H       1  UNL1        0.0404
     49 H           9.7319    1.6543    0.0000 H       1  UNL1        0.0404
     50 H           6.2030    2.0081    0.0000 H       1  UNL1        0.0305
     51 H           8.5940    2.1795    0.0000 H       1  UNL1        0.0305
     52 H           3.8827   -1.8929    0.0000 H       1  UNL1        0.0243
     53 H           4.7322   -2.1100    0.0000 H       1  UNL1        0.0243
     54 H           4.9494   -1.2605    0.0000 H       1  UNL1        0.0243
     55 H           2.8756   -1.2845    0.0000 H       1  UNL1        0.0243
     56 H           3.1123   -2.1288    0.0000 H       1  UNL1        0.0243
     57 H           3.9566   -1.8921    0.0000 H       1  UNL1        0.0243
     58 H           2.0024    1.4628    0.0000 H       1  UNL1        0.0243
     59 H           1.3800    0.8452    0.0000 H       1  UNL1        0.0243
     60 H           1.9976    0.2228    0.0000 H       1  UNL1        0.0243
     61 H           3.0415    2.0148    0.0000 H       1  UNL1        0.0243
     62 H           2.1954    2.2450    0.0000 H       1  UNL1        0.0243
     63 H           1.9652    1.3990    0.0000 H       1  UNL1        0.0243
     64 H           5.1100    3.3551    0.0000 H       1  UNL1        0.0233
     65 H           4.2631    3.1281    0.0000 H       1  UNL1        0.0233
     66 H           4.4900    2.2812    0.0000 H       1  UNL1        0.0233
     67 H           6.8420    2.2812    0.0000 H       1  UNL1        0.0233
     68 H           7.0690    3.1281    0.0000 H       1  UNL1        0.0233
     69 H           6.2220    3.3551    0.0000 H       1  UNL1        0.0233
     70 H          12.7985    0.2362    0.0000 H       1  UNL1        0.0243
     71 H          13.4161    0.8585    0.0000 H       1  UNL1        0.0243
     72 H          12.7937    1.4761    0.0000 H       1  UNL1        0.0243
     73 H          12.8309    1.4123    0.0000 H       1  UNL1        0.0243
     74 H          12.6007    2.2584    0.0000 H       1  UNL1        0.0243
     75 H          11.7547    2.0282    0.0000 H       1  UNL1        0.0243
     76 H          10.9035   -1.8272    0.0000 H       1  UNL1        0.0243
     77 H          11.7513   -2.0509    0.0000 H       1  UNL1        0.0243
     78 H          11.9750   -1.2031    0.0000 H       1  UNL1        0.0243
     79 H           9.9011   -1.2110    0.0000 H       1  UNL1        0.0243
     80 H          10.1313   -2.0571    0.0000 H       1  UNL1        0.0243
     81 H          10.9774   -1.8269    0.0000 H       1  UNL1        0.0243
     82 H          10.3685    2.3099    0.0000 H       1  UNL1        0.0233
     83 H          10.5921    3.1577    0.0000 H       1  UNL1        0.0233
     84 H           9.7443    3.3813    0.0000 H       1  UNL1        0.0233
     85 H           9.2247    3.5184    0.0000 H       1  UNL1        0.0233
     86 H           8.3769    3.7421    0.0000 H       1  UNL1        0.0233
     87 H           8.1532    2.8943    0.0000 H       1  UNL1        0.0233
     88 H           7.7182    2.8932    0.0000 H       1  UNL1        0.2922
     89 H           7.0760   -2.5226    0.0000 H       1  UNL1        0.0375
     90 H          11.4601    2.6610    0.0000 H       1  UNL1        0.2917
     91 H           9.1938   -1.3260    0.0000 H       1  UNL1        0.2922
     92 H           5.9112   -3.1992    0.0000 H       1  UNL1        0.0236
     93 H           6.5240   -3.8263    0.0000 H       1  UNL1        0.0236
     94 H           7.1511   -3.2135    0.0000 H       1  UNL1        0.0236
     95 H           5.9987   -1.1631    0.0000 H       1  UNL1        0.0236
     96 H           5.1492   -1.3803    0.0000 H       1  UNL1        0.0236
     97 H           5.3663   -2.2298    0.0000 H       1  UNL1        0.0236
@<TRIPOS>BOND
     1     1    14    1
     2     1    21    1
     3     2    18    2
     4     3    19    2
     5     4    23    1
     6     4    88    1
     7     5    29    1
     8     5    90    1
     9     6    35    1
    10     6    91    1
    11     7    31    2
    12     8    34    2
    13     9    44    2
    14    10    12    1
    15    10    15    1
    16    10    17    1
    17    10    48    1
    18    11    14    1
    19    11    18    1
    20    11    27    1
    21    11    28    1
    22    12    14    2
    23    12    19    1
    24    13    18    1
    25    13    19    1
    26    13    32    1
    27    13    33    1
    28    15    21   ar
    29    15    23   ar
    30    16    20    1
    31    16    22    1
    32    16    26    1
    33    16    49    1
    34    17    36    1
    35    17    37    1
    36    17    50    1
    37    20    23   ar
    38    20    35   ar
    39    21    30   ar
    40    22    29    2
    41    22    31    1
    42    24    29    1
    43    24    34    1
    44    24    38    1
    45    24    39    1
    46    25    31    1
    47    25    34    1
    48    25    40    1
    49    25    41    1
    50    26    42    1
    51    26    43    1
    52    26    51    1
    53    27    55    1
    54    27    56    1
    55    27    57    1
    56    28    52    1
    57    28    53    1
    58    28    54    1
    59    30    35   ar
    60    30    44    1
    61    32    58    1
    62    32    59    1
    63    32    60    1
    64    33    61    1
    65    33    62    1
    66    33    63    1
    67    36    64    1
    68    36    65    1
    69    36    66    1
    70    37    67    1
    71    37    68    1
    72    37    69    1
    73    38    70    1
    74    38    71    1
    75    38    72    1
    76    39    73    1
    77    39    74    1
    78    39    75    1
    79    40    76    1
    80    40    77    1
    81    40    78    1
    82    41    79    1
    83    41    80    1
    84    41    81    1
    85    42    82    1
    86    42    83    1
    87    42    84    1
    88    43    85    1
    89    43    86    1
    90    43    87    1
    91    44    45    1
    92    45    46    1
    93    45    47    1
    94    45    89    1
    95    46    92    1
    96    46    93    1
    97    46    94    1
    98    47    95    1
    99    47    96    1
   100    47    97    1
