@<TRIPOS>MOLECULE
IMPHY008715
 108 114 0 0 0
SMALL
GASTEIGER

@<TRIPOS>ATOM
      1 O           3.9782    0.1661    0.0000 O.3     1  UNL1       -0.3378
      2 O           5.2667    2.6612    0.0000 O.3     1  UNL1       -0.3841
      3 O           2.3121   -1.2922    0.0000 O.3     1  UNL1       -0.3615
      4 O           3.7474    2.2691    0.0000 O.3     1  UNL1       -0.3913
      5 O           5.0435    3.3951    0.0000 O.3     1  UNL1       -0.4556
      6 O           3.1677   -3.0928    0.0000 O.3     1  UNL1       -0.4539
      7 O           6.7755    4.3951    0.0000 O.3     1  UNL1       -0.3876
      8 O           9.0254    4.3016    0.0000 O.3     1  UNL1       -0.3869
      9 O           5.9095    4.8951    0.0000 O.2     1  UNL1       -0.2505
     10 O           4.5737   -4.1042    0.0000 O.2     1  UNL1       -0.2476
     11 O           2.4108   -5.6280    0.0000 O.3     1  UNL1       -0.3777
     12 N           9.4416    1.8743    0.0000 N.3     1  UNL1       -0.2961
     13 C           5.5776    0.3203    0.0000 C.3     1  UNL1        0.0869
     14 C           4.9827   -0.5272    0.0000 C.3     1  UNL1        0.0056
     15 C           5.1725    1.2281    0.0000 C.3     1  UNL1        0.0473
     16 C           5.9095    1.8951    0.0000 C.3     1  UNL1        0.1162
     17 C           6.7755    1.3951    0.0000 C.3     1  UNL1       -0.0011
     18 C           3.9520   -0.4278    0.0000 C.3     1  UNL1        0.0270
     19 C           6.5663    0.4233    0.0000 C.3     1  UNL1       -0.0168
     20 C           3.3121   -1.2961    0.0000 C.3     1  UNL1        0.2092
     21 C           4.1444    1.3513    0.0000 C.3     1  UNL1        0.0639
     22 C           7.6415    1.8951    0.0000 C.3     1  UNL1       -0.0146
     23 C           3.5300    0.5177    0.0000 C.3     1  UNL1       -0.0180
     24 C           5.4449   -1.5018    0.0000 C.3     1  UNL1       -0.0410
     25 C           5.9095    2.8951    0.0000 C.3     1  UNL1        0.1582
     26 C           7.6415    2.8951    0.0000 C.3     1  UNL1        0.0230
     27 C           3.7516   -2.2810    0.0000 C.3     1  UNL1        0.1568
     28 C           6.7755    3.3951    0.0000 C.3     1  UNL1        0.1006
     29 C           5.9781   -0.6232    0.0000 C.3     1  UNL1       -0.0565
     30 C           4.8252   -2.3845    0.0000 C.3     1  UNL1       -0.0099
     31 C           8.5355    3.4298    0.0000 C.3     1  UNL1        0.0843
     32 C           8.5355    1.3605    0.0000 C.3     1  UNL1        0.0029
     33 C           9.4416    2.9160    0.0000 C.3     1  UNL1        0.0393
     34 C           8.0255    4.2900    0.0000 C.3     1  UNL1       -0.0342
     35 C          10.3727    3.4729    0.0000 C.3     1  UNL1       -0.0344
     36 C          10.3727    1.3174    0.0000 C.3     1  UNL1        0.0019
     37 C          11.3165    1.8526    0.0000 C.3     1  UNL1       -0.0310
     38 C          11.3165    2.9376    0.0000 C.3     1  UNL1       -0.0478
     39 C           5.0435    4.3951    0.0000 C.2     1  UNL1        0.3104
     40 C           3.5787   -4.0044    0.0000 C.2     1  UNL1        0.3393
     41 C          12.1806    1.3493    0.0000 C.3     1  UNL1       -0.0613
     42 C           4.1774    4.8951    0.0000 C.3     1  UNL1        0.0534
     43 C           2.9947   -4.8162    0.0000 C.3     1  UNL1        0.1590
     44 C           4.1774    5.8951    0.0000 C.3     1  UNL1       -0.0432
     45 C           3.3114    4.3951    0.0000 C.3     1  UNL1       -0.0523
     46 C           3.8065   -5.4001    0.0000 C.3     1  UNL1       -0.0166
     47 C           2.1830   -4.2322    0.0000 C.3     1  UNL1       -0.0256
     48 C           3.3114    6.3951    0.0000 C.3     1  UNL1       -0.0645
     49 C           3.7067   -6.3951    0.0000 C.3     1  UNL1       -0.0622
     50 H           4.8261    2.0043    0.0000 H       1  UNL1        0.0383
     51 H           7.4625    0.8946    0.0000 H       1  UNL1        0.0334
     52 H           3.1059   -0.3462    0.0000 H       1  UNL1        0.0361
     53 H           6.5654   -0.1967    0.0000 H       1  UNL1        0.0297
     54 H           7.1828    0.3573    0.0000 H       1  UNL1        0.0297
     55 H           3.5284    1.4215    0.0000 H       1  UNL1        0.0598
     56 H           7.6350    1.0452    0.0000 H       1  UNL1        0.0321
     57 H           3.1012    0.9656    0.0000 H       1  UNL1        0.0295
     58 H           3.0154    0.1719    0.0000 H       1  UNL1        0.0295
     59 H           5.9095    3.5151    0.0000 H       1  UNL1        0.0790
     60 H           5.8839   -1.9395    0.0000 H       1  UNL1        0.0273
     61 H           5.9513   -1.1441    0.0000 H       1  UNL1        0.0273
     62 H           7.6350    3.7451    0.0000 H       1  UNL1        0.0358
     63 H           4.0076   -2.8457    0.0000 H       1  UNL1        0.0788
     64 H           6.2386    3.7051    0.0000 H       1  UNL1        0.0635
     65 H           5.9185   -1.2404    0.0000 H       1  UNL1        0.0236
     66 H           6.5952   -0.6828    0.0000 H       1  UNL1        0.0236
     67 H           6.0376   -0.0061    0.0000 H       1  UNL1        0.0236
     68 H           4.6610   -2.9824    0.0000 H       1  UNL1        0.0303
     69 H           5.3861   -2.6487    0.0000 H       1  UNL1        0.0303
     70 H           8.1309    0.8907    0.0000 H       1  UNL1        0.0430
     71 H           8.9291    0.8815    0.0000 H       1  UNL1        0.0430
     72 H           4.6561    2.5535    0.0000 H       1  UNL1        0.2103
     73 H           9.4317    3.7659    0.0000 H       1  UNL1        0.0491
     74 H           2.0000   -1.8279    0.0000 H       1  UNL1        0.2129
     75 H           3.1316    2.3405    0.0000 H       1  UNL1        0.2098
     76 H           8.5588    4.6062    0.0000 H       1  UNL1        0.0258
     77 H           7.7093    4.8233    0.0000 H       1  UNL1        0.0258
     78 H           7.4922    3.9738    0.0000 H       1  UNL1        0.0258
     79 H          10.7663    3.9519    0.0000 H       1  UNL1        0.0281
     80 H           9.9681    3.9427    0.0000 H       1  UNL1        0.0281
     81 H           9.9681    0.8476    0.0000 H       1  UNL1        0.0429
     82 H          10.7663    0.8384    0.0000 H       1  UNL1        0.0429
     83 H           7.3124    4.7051    0.0000 H       1  UNL1        0.2100
     84 H           8.7093    4.8349    0.0000 H       1  UNL1        0.2102
     85 H          11.3129    1.2327    0.0000 H       1  UNL1        0.0310
     86 H          11.9274    2.8316    0.0000 H       1  UNL1        0.0269
     87 H          11.5256    3.5213    0.0000 H       1  UNL1        0.0269
     88 H          11.8685    0.8136    0.0000 H       1  UNL1        0.0233
     89 H          12.7163    1.0372    0.0000 H       1  UNL1        0.0233
     90 H          12.4927    1.8850    0.0000 H       1  UNL1        0.0233
     91 H           4.1774    4.2751    0.0000 H       1  UNL1        0.0410
     92 H           4.7880    5.7875    0.0000 H       1  UNL1        0.0270
     93 H           4.3895    6.4778    0.0000 H       1  UNL1        0.0270
     94 H           3.0014    4.9321    0.0000 H       1  UNL1        0.0238
     95 H           2.7745    4.0851    0.0000 H       1  UNL1        0.0238
     96 H           3.6214    3.8582    0.0000 H       1  UNL1        0.0238
     97 H           4.4033   -5.5682    0.0000 H       1  UNL1        0.0296
     98 H           4.0757   -4.8416    0.0000 H       1  UNL1        0.0296
     99 H           2.5450   -3.7289    0.0000 H       1  UNL1        0.0263
    100 H           1.6797   -3.8702    0.0000 H       1  UNL1        0.0263
    101 H           1.8209   -4.7355    0.0000 H       1  UNL1        0.0263
    102 H           2.6656   -6.1932    0.0000 H       1  UNL1        0.2109
    103 H           3.6214    6.9321    0.0000 H       1  UNL1        0.0230
    104 H           2.7745    6.7051    0.0000 H       1  UNL1        0.0230
    105 H           3.0014    5.8582    0.0000 H       1  UNL1        0.0230
    106 H           3.0898   -6.3332    0.0000 H       1  UNL1        0.0231
    107 H           3.6448   -7.0120    0.0000 H       1  UNL1        0.0231
    108 H           4.3236   -6.4570    0.0000 H       1  UNL1        0.0231
@<TRIPOS>BOND
     1     1    13    1
     2     1    20    1
     3    16     2    1
     4     2    72    1
     5    20     3    1
     6     3    74    1
     7    21     4    1
     8     4    75    1
     9    25     5    1
    10     5    39    1
    11    27     6    1
    12     6    40    1
    13    28     7    1
    14     7    83    1
    15    31     8    1
    16     8    84    1
    17     9    39    2
    18    10    40    2
    19    43    11    1
    20    11   102    1
    21    12    32    1
    22    12    33    1
    23    12    36    1
    24    13    14    1
    25    13    15    1
    26    13    19    1
    27    14    18    1
    28    14    24    1
    29    14    29    1
    30    15    16    1
    31    15    21    1
    32    15    50    1
    33    16    17    1
    34    16    25    1
    35    17    19    1
    36    17    22    1
    37    17    51    1
    38    18    20    1
    39    18    23    1
    40    18    52    1
    41    19    53    1
    42    19    54    1
    43    20    27    1
    44    21    23    1
    45    21    55    1
    46    22    26    1
    47    22    32    1
    48    22    56    1
    49    23    57    1
    50    23    58    1
    51    24    30    1
    52    24    60    1
    53    24    61    1
    54    25    28    1
    55    25    59    1
    56    26    28    1
    57    26    31    1
    58    26    62    1
    59    27    30    1
    60    27    63    1
    61    28    64    1
    62    29    65    1
    63    29    66    1
    64    29    67    1
    65    30    68    1
    66    30    69    1
    67    31    33    1
    68    31    34    1
    69    32    70    1
    70    32    71    1
    71    33    35    1
    72    33    73    1
    73    34    76    1
    74    34    77    1
    75    34    78    1
    76    35    38    1
    77    35    79    1
    78    35    80    1
    79    36    37    1
    80    36    81    1
    81    36    82    1
    82    37    38    1
    83    37    41    1
    84    37    85    1
    85    38    86    1
    86    38    87    1
    87    39    42    1
    88    40    43    1
    89    41    88    1
    90    41    89    1
    91    41    90    1
    92    42    44    1
    93    42    45    1
    94    42    91    1
    95    43    46    1
    96    43    47    1
    97    44    48    1
    98    44    92    1
    99    44    93    1
   100    45    94    1
   101    45    95    1
   102    45    96    1
   103    46    49    1
   104    46    97    1
   105    46    98    1
   106    47    99    1
   107    47   100    1
   108    47   101    1
   109    48   103    1
   110    48   104    1
   111    48   105    1
   112    49   106    1
   113    49   107    1
   114    49   108    1
