@<TRIPOS>MOLECULE
IMPHY014180
 135 142 0 0 0
SMALL
GASTEIGER

@<TRIPOS>ATOM
      1 O           8.9271   -2.4133    0.0000 O.3     1  UNL1       -0.3877
      2 O           6.0010   -5.3145    0.0000 O.3     1  UNL1       -0.3445
      3 O           8.8447    3.0809    0.0000 O.3     1  UNL1       -0.3451
      4 O           4.2690   -5.3145    0.0000 O.3     1  UNL1       -0.3395
      5 O           7.1963    3.6126    0.0000 O.3     1  UNL1       -0.3431
      6 O           6.0010   -7.3145    0.0000 O.3     1  UNL1       -0.4500
      7 O           4.2690   -8.3145    0.0000 O.3     1  UNL1       -0.3853
      8 O           9.4587    4.9843    0.0000 O.3     1  UNL1       -0.3841
      9 O           2.5369   -7.3145    0.0000 O.3     1  UNL1       -0.3864
     10 O           8.1173    6.4677    0.0000 O.3     1  UNL1       -0.3744
     11 O           6.1619    6.0478    0.0000 O.3     1  UNL1       -0.3402
     12 O           2.5369   -4.3145    0.0000 O.3     1  UNL1       -0.3924
     13 O           5.1350   -8.8145    0.0000 O.2     1  UNL1       -0.2449
     14 O           7.4466    7.2095    0.0000 O.3     1  UNL1       -0.3405
     15 O           4.8204    7.5312    0.0000 O.3     1  UNL1       -0.3841
     16 O           5.4344    9.4346    0.0000 O.3     1  UNL1       -0.3864
     17 O           7.3898    9.8546    0.0000 O.3     1  UNL1       -0.3865
     18 O           9.0382    9.3229    0.0000 O.3     1  UNL1       -0.3924
     19 C           6.9701   -2.8257    0.0000 C.3     1  UNL1        0.0022
     20 C           7.9486   -2.6195    0.0000 C.3     1  UNL1        0.0751
     21 C           8.2593   -1.6690    0.0000 C.3     1  UNL1       -0.0046
     22 C           7.5914   -0.9247    0.0000 C.3     1  UNL1       -0.0262
     23 C           6.8671   -3.8145    0.0000 C.3     1  UNL1       -0.0068
     24 C           6.3023   -2.0814    0.0000 C.3     1  UNL1       -0.0444
     25 C           7.8997    0.0703    0.0000 C.3     1  UNL1       -0.0077
     26 C           8.4419   -3.4826    0.0000 C.3     1  UNL1       -0.0228
     27 C           6.6129   -1.1309    0.0000 C.3     1  UNL1       -0.0485
     28 C           7.7748   -4.2196    0.0000 C.3     1  UNL1       -0.0447
     29 C           9.2817   -1.4699    0.0000 C.3     1  UNL1       -0.0287
     30 C           5.9916   -3.0320    0.0000 C.3     1  UNL1       -0.0566
     31 C           8.9173    0.2929    0.0000 C.2     1  UNL1       -0.0648
     32 C           6.0010   -4.3145    0.0000 C.3     1  UNL1        0.0624
     33 C           7.1566    0.8608    0.0000 C.3     1  UNL1       -0.0413
     34 C           9.6129   -0.4824    0.0000 C.2     1  UNL1       -0.0838
     35 C           6.9228   -0.1435    0.0000 C.3     1  UNL1       -0.0556
     36 C           9.2623    1.3216    0.0000 C.3     1  UNL1       -0.0047
     37 C           7.4778    1.8972    0.0000 C.3     1  UNL1       -0.0254
     38 C           8.5377    2.1292    0.0000 C.3     1  UNL1        0.0655
     39 C           5.1350   -3.8145    0.0000 C.3     1  UNL1       -0.0383
     40 C           5.1350   -5.8145    0.0000 C.3     1  UNL1        0.1995
     41 C           8.1740    3.8226    0.0000 C.3     1  UNL1        0.1881
     42 C           5.1350   -6.8145    0.0000 C.3     1  UNL1        0.1819
     43 C           4.2690   -7.3145    0.0000 C.3     1  UNL1        0.1251
     44 C           8.4810    4.7743    0.0000 C.3     1  UNL1        0.1344
     45 C           3.4030   -5.8145    0.0000 C.3     1  UNL1        0.1131
     46 C           3.4030   -6.8145    0.0000 C.3     1  UNL1        0.1130
     47 C           7.8103    5.5160    0.0000 C.3     1  UNL1        0.1174
     48 C           6.5256    4.3543    0.0000 C.3     1  UNL1        0.0877
     49 C           6.8326    5.3060    0.0000 C.3     1  UNL1        0.1162
     50 C           2.5369   -5.3145    0.0000 C.3     1  UNL1        0.0730
     51 C           5.5479    4.1443    0.0000 C.3     1  UNL1       -0.0360
     52 C           6.0010   -8.3145    0.0000 C.2     1  UNL1        0.3397
     53 C           6.4688    6.9995    0.0000 C.3     1  UNL1        0.1884
     54 C           9.0950    6.6777    0.0000 C.3     1  UNL1        0.0370
     55 C           6.8671   -8.8145    0.0000 C.ar    1  UNL1        0.0590
     56 C           5.7981    7.7412    0.0000 C.3     1  UNL1        0.1341
     57 C           6.1051    8.6929    0.0000 C.3     1  UNL1        0.1141
     58 C           7.7536    8.1612    0.0000 C.3     1  UNL1        0.1130
     59 C           6.8671   -9.8145    0.0000 C.ar    1  UNL1       -0.0478
     60 C           7.7331   -8.3145    0.0000 C.ar    1  UNL1       -0.0478
     61 C           7.0828    8.9029    0.0000 C.3     1  UNL1        0.1119
     62 C           8.7313    8.3712    0.0000 C.3     1  UNL1        0.0730
     63 C           7.7331  -10.3145    0.0000 C.ar    1  UNL1       -0.0610
     64 C           8.5991   -8.8145    0.0000 C.ar    1  UNL1       -0.0610
     65 C           8.5991   -9.8145    0.0000 C.ar    1  UNL1       -0.0617
     66 H           8.8221   -2.3060    0.0000 H       1  UNL1        0.0335
     67 H           8.4218   -0.7430    0.0000 H       1  UNL1        0.0313
     68 H           7.6032   -3.3895    0.0000 H       1  UNL1        0.0332
     69 H           5.7554   -1.7894    0.0000 H       1  UNL1        0.0272
     70 H           5.9197   -2.5694    0.0000 H       1  UNL1        0.0272
     71 H           8.8553   -3.9446    0.0000 H       1  UNL1        0.0293
     72 H           8.9449   -3.1200    0.0000 H       1  UNL1        0.0293
     73 H           6.5924   -0.5113    0.0000 H       1  UNL1        0.0268
     74 H           5.9991   -1.0436    0.0000 H       1  UNL1        0.0268
     75 H           7.4641   -4.7561    0.0000 H       1  UNL1        0.0270
     76 H           8.2757   -4.5850    0.0000 H       1  UNL1        0.0270
     77 H           9.2943   -2.0898    0.0000 H       1  UNL1        0.0311
     78 H           9.8946   -1.5636    0.0000 H       1  UNL1        0.0311
     79 H           5.8638   -2.4253    0.0000 H       1  UNL1        0.0236
     80 H           5.3849   -3.1598    0.0000 H       1  UNL1        0.0236
     81 H           6.1195   -3.6386    0.0000 H       1  UNL1        0.0236
     82 H           6.5380   -4.6245    0.0000 H       1  UNL1        0.0597
     83 H           6.6046    1.1430    0.0000 H       1  UNL1        0.0274
     84 H           6.7842    0.3652    0.0000 H       1  UNL1        0.0274
     85 H          10.2201   -0.3569    0.0000 H       1  UNL1        0.0572
     86 H           9.3412   -2.8748    0.0000 H       1  UNL1        0.2102
     87 H           6.7903    0.4622    0.0000 H       1  UNL1        0.0238
     88 H           6.3172   -0.2760    0.0000 H       1  UNL1        0.0238
     89 H           7.0554   -0.7492    0.0000 H       1  UNL1        0.0238
     90 H           9.8077    1.0268    0.0000 H       1  UNL1        0.0335
     91 H           9.6461    1.8085    0.0000 H       1  UNL1        0.0335
     92 H           7.4508    2.5166    0.0000 H       1  UNL1        0.0290
     93 H           6.8629    1.9767    0.0000 H       1  UNL1        0.0290
     94 H           8.1210    2.5882    0.0000 H       1  UNL1        0.0600
     95 H           5.4450   -3.2775    0.0000 H       1  UNL1        0.0255
     96 H           4.5981   -3.5045    0.0000 H       1  UNL1        0.0255
     97 H           4.8250   -4.3514    0.0000 H       1  UNL1        0.0255
     98 H           5.1350   -5.1945    0.0000 H       1  UNL1        0.0949
     99 H           7.9836    3.2325    0.0000 H       1  UNL1        0.0937
    100 H           5.1350   -7.4345    0.0000 H       1  UNL1        0.0813
    101 H           3.7320   -7.6245    0.0000 H       1  UNL1        0.0659
    102 H           8.8968    4.3144    0.0000 H       1  UNL1        0.0671
    103 H           3.4030   -5.1945    0.0000 H       1  UNL1        0.0647
    104 H           3.4030   -7.4345    0.0000 H       1  UNL1        0.0647
    105 H           7.3944    5.9759    0.0000 H       1  UNL1        0.0650
    106 H           6.3352    3.7643    0.0000 H       1  UNL1        0.0621
    107 H           6.2264    5.1758    0.0000 H       1  UNL1        0.0650
    108 H           1.9264   -5.2068    0.0000 H       1  UNL1        0.0584
    109 H           2.3249   -5.8971    0.0000 H       1  UNL1        0.0584
    110 H           3.7320   -8.6245    0.0000 H       1  UNL1        0.2101
    111 H           9.8745    4.5244    0.0000 H       1  UNL1        0.2101
    112 H           2.0000   -7.0045    0.0000 H       1  UNL1        0.2100
    113 H           5.4177    4.7505    0.0000 H       1  UNL1        0.0255
    114 H           4.9417    4.0141    0.0000 H       1  UNL1        0.0255
    115 H           5.6781    3.5382    0.0000 H       1  UNL1        0.0255
    116 H           2.0000   -4.0045    0.0000 H       1  UNL1        0.2095
    117 H           5.8627    6.8693    0.0000 H       1  UNL1        0.0938
    118 H           9.2252    6.0716    0.0000 H       1  UNL1        0.0524
    119 H           9.7011    6.8079    0.0000 H       1  UNL1        0.0524
    120 H           8.9648    7.2839    0.0000 H       1  UNL1        0.0524
    121 H           5.3823    8.2011    0.0000 H       1  UNL1        0.0671
    122 H           6.2955    9.2830    0.0000 H       1  UNL1        0.0648
    123 H           8.1694    7.7013    0.0000 H       1  UNL1        0.0647
    124 H           6.3301  -10.1245    0.0000 H       1  UNL1        0.0626
    125 H           7.7331   -7.6945    0.0000 H       1  UNL1        0.0626
    126 H           7.6890    9.0331    0.0000 H       1  UNL1        0.0647
    127 H           4.4046    7.9911    0.0000 H       1  UNL1        0.2101
    128 H           8.7542    7.7516    0.0000 H       1  UNL1        0.0584
    129 H           9.3454    8.2862    0.0000 H       1  UNL1        0.0584
    130 H           7.7331  -10.9345    0.0000 H       1  UNL1        0.0618
    131 H           9.1360   -8.5045    0.0000 H       1  UNL1        0.0618
    132 H           5.6248   10.0247    0.0000 H       1  UNL1        0.2100
    133 H           9.1360  -10.1245    0.0000 H       1  UNL1        0.0618
    134 H           6.9740   10.3145    0.0000 H       1  UNL1        0.2100
    135 H           9.6444    9.4531    0.0000 H       1  UNL1        0.2095
@<TRIPOS>BOND
     1    20     1    1
     2     1    86    1
     3    32     2    1
     4    40     2    1
     5    38     3    1
     6    41     3    1
     7     4    40    1
     8     4    45    1
     9     5    41    1
    10     5    48    1
    11    42     6    1
    12     6    52    1
    13    43     7    1
    14     7   110    1
    15    44     8    1
    16     8   111    1
    17    46     9    1
    18     9   112    1
    19    47    10    1
    20    10    54    1
    21    49    11    1
    22    53    11    1
    23    12    50    1
    24    12   116    1
    25    13    52    2
    26    14    53    1
    27    14    58    1
    28    56    15    1
    29    15   127    1
    30    57    16    1
    31    16   132    1
    32    61    17    1
    33    17   134    1
    34    18    62    1
    35    18   135    1
    36    19    20    1
    37    19    23    1
    38    19    24    1
    39    19    30    1
    40    20    21    1
    41    20    26    1
    42    21    22    1
    43    21    29    1
    44    21    66    1
    45    22    25    1
    46    22    27    1
    47    22    67    1
    48    23    28    1
    49    23    32    1
    50    23    68    1
    51    24    27    1
    52    24    69    1
    53    24    70    1
    54    25    31    1
    55    25    33    1
    56    25    35    1
    57    26    28    1
    58    26    71    1
    59    26    72    1
    60    27    73    1
    61    27    74    1
    62    28    75    1
    63    28    76    1
    64    29    34    1
    65    29    77    1
    66    29    78    1
    67    30    79    1
    68    30    80    1
    69    30    81    1
    70    31    34    2
    71    31    36    1
    72    32    39    1
    73    32    82    1
    74    33    37    1
    75    33    83    1
    76    33    84    1
    77    34    85    1
    78    35    87    1
    79    35    88    1
    80    35    89    1
    81    36    38    1
    82    36    90    1
    83    36    91    1
    84    37    38    1
    85    37    92    1
    86    37    93    1
    87    38    94    1
    88    39    95    1
    89    39    96    1
    90    39    97    1
    91    40    42    1
    92    40    98    1
    93    41    44    1
    94    41    99    1
    95    42    43    1
    96    42   100    1
    97    43    46    1
    98    43   101    1
    99    44    47    1
   100    44   102    1
   101    45    46    1
   102    45    50    1
   103    45   103    1
   104    46   104    1
   105    47    49    1
   106    47   105    1
   107    48    49    1
   108    48    51    1
   109    48   106    1
   110    49   107    1
   111    50   108    1
   112    50   109    1
   113    51   113    1
   114    51   114    1
   115    51   115    1
   116    52    55    1
   117    53    56    1
   118    53   117    1
   119    54   118    1
   120    54   119    1
   121    54   120    1
   122    55    59   ar
   123    55    60   ar
   124    56    57    1
   125    56   121    1
   126    57    61    1
   127    57   122    1
   128    58    61    1
   129    58    62    1
   130    58   123    1
   131    59    63   ar
   132    59   124    1
   133    60    64   ar
   134    60   125    1
   135    61   126    1
   136    62   128    1
   137    62   129    1
   138    63    65   ar
   139    63   130    1
   140    64    65   ar
   141    64   131    1
   142    65   133    1
