@<TRIPOS>MOLECULE
IMPHY004150
 31 30 0 0 0
SMALL
GASTEIGER

@<TRIPOS>ATOM
      1 O           2.8660    0.7500    0.0000 O.3     1  UNL1       -0.4627
      2 O           2.0000    2.2500    0.0000 O.2     1  UNL1       -0.2546
      3 C           5.4641   -0.7500    0.0000 C.3     1  UNL1       -0.0285
      4 C           6.3301   -1.2500    0.0000 C.3     1  UNL1       -0.0308
      5 C           4.5981   -1.2500    0.0000 C.2     1  UNL1       -0.0731
      6 C           7.1962   -0.7500    0.0000 C.2     1  UNL1       -0.0850
      7 C           8.0622   -1.2500    0.0000 C.2     1  UNL1       -0.0796
      8 C           3.7320   -0.7500    0.0000 C.2     1  UNL1       -0.0480
      9 C           4.5981   -2.2500    0.0000 C.3     1  UNL1       -0.0437
     10 C           3.7320    0.2500    0.0000 C.3     1  UNL1        0.1107
     11 C           8.9282   -0.7500    0.0000 C.3     1  UNL1       -0.0440
     12 C           8.0622   -2.2500    0.0000 C.3     1  UNL1       -0.0440
     13 C           2.8660    1.7500    0.0000 C.2     1  UNL1        0.2945
     14 H           5.8626   -0.2751    0.0000 H       1  UNL1        0.0313
     15 H           5.0656   -0.2751    0.0000 H       1  UNL1        0.0313
     16 H           5.9316   -1.7250    0.0000 H       1  UNL1        0.0310
     17 H           6.7287   -1.7250    0.0000 H       1  UNL1        0.0310
     18 H           7.1962   -0.1300    0.0000 H       1  UNL1        0.0572
     19 H           3.1951   -1.0600    0.0000 H       1  UNL1        0.0605
     20 H           3.9781   -2.2500    0.0000 H       1  UNL1        0.0274
     21 H           4.5981   -2.8700    0.0000 H       1  UNL1        0.0274
     22 H           5.2181   -2.2500    0.0000 H       1  UNL1        0.0274
     23 H           4.3426    0.1423    0.0000 H       1  UNL1        0.0743
     24 H           3.9441    0.8326    0.0000 H       1  UNL1        0.0743
     25 H           9.2382   -1.2869    0.0000 H       1  UNL1        0.0274
     26 H           9.4651   -0.4400    0.0000 H       1  UNL1        0.0274
     27 H           8.6182   -0.2131    0.0000 H       1  UNL1        0.0274
     28 H           7.4422   -2.2500    0.0000 H       1  UNL1        0.0274
     29 H           8.0622   -2.8700    0.0000 H       1  UNL1        0.0274
     30 H           8.6822   -2.2500    0.0000 H       1  UNL1        0.0274
     31 H           3.4030    2.0600    0.0000 H       1  UNL1        0.1512
@<TRIPOS>BOND
     1     1    10    1
     2     1    13    1
     3     2    13    2
     4     3     4    1
     5     3     5    1
     6     3    14    1
     7     3    15    1
     8     4     6    1
     9     4    16    1
    10     4    17    1
    11     5     8    2
    12     5     9    1
    13     6     7    2
    14     6    18    1
    15     7    11    1
    16     7    12    1
    17     8    10    1
    18     8    19    1
    19     9    20    1
    20     9    21    1
    21     9    22    1
    22    10    23    1
    23    10    24    1
    24    11    25    1
    25    11    26    1
    26    11    27    1
    27    12    28    1
    28    12    29    1
    29    12    30    1
    30    13    31    1
