@<TRIPOS>MOLECULE
IMPHY015903
 34 34 0 0 0
SMALL
GASTEIGER

@<TRIPOS>ATOM
      1 O           3.7320   -2.0000    0.0000 O.3     1  UNL1       -0.3872
      2 O           2.8660    1.5000    0.0000 O.3     1  UNL1       -0.4913
      3 O           6.3301    1.5000    0.0000 O.3     1  UNL1       -0.4913
      4 O           4.5981    2.5000    0.0000 O.3     1  UNL1       -0.4885
      5 C           4.5981   -1.5000    0.0000 C.3     1  UNL1        0.0802
      6 C           4.5981   -0.5000    0.0000 C.ar    1  UNL1       -0.0120
      7 C           5.4641   -2.0000    0.0000 C.3     1  UNL1       -0.0255
      8 C           5.4641    0.0000    0.0000 C.ar    1  UNL1       -0.0104
      9 C           3.7320    0.0000    0.0000 C.ar    1  UNL1       -0.0104
     10 C           3.7320    1.0000    0.0000 C.ar    1  UNL1        0.1655
     11 C           5.4641    1.0000    0.0000 C.ar    1  UNL1        0.1655
     12 C           4.5981    1.5000    0.0000 C.ar    1  UNL1        0.2035
     13 C           5.4641   -3.0000    0.0000 C.3     1  UNL1       -0.0626
     14 C           2.0000    1.0000    0.0000 C.3     1  UNL1        0.0790
     15 C           7.1962    1.0000    0.0000 C.3     1  UNL1        0.0790
     16 C           5.4641    3.0000    0.0000 C.3     1  UNL1        0.0791
     17 H           4.5981   -2.1200    0.0000 H       1  UNL1        0.0643
     18 H           6.0747   -2.1077    0.0000 H       1  UNL1        0.0291
     19 H           5.6762   -1.4174    0.0000 H       1  UNL1        0.0291
     20 H           6.0010   -0.3100    0.0000 H       1  UNL1        0.0659
     21 H           3.1951   -0.3100    0.0000 H       1  UNL1        0.0659
     22 H           4.8441   -3.0000    0.0000 H       1  UNL1        0.0231
     23 H           5.4641   -3.6200    0.0000 H       1  UNL1        0.0231
     24 H           6.0841   -3.0000    0.0000 H       1  UNL1        0.0231
     25 H           3.7320   -2.6200    0.0000 H       1  UNL1        0.2102
     26 H           1.6900    1.5369    0.0000 H       1  UNL1        0.0660
     27 H           1.4631    0.6900    0.0000 H       1  UNL1        0.0660
     28 H           2.3100    0.4631    0.0000 H       1  UNL1        0.0660
     29 H           6.8862    0.4631    0.0000 H       1  UNL1        0.0660
     30 H           7.7331    0.6900    0.0000 H       1  UNL1        0.0660
     31 H           7.5062    1.5369    0.0000 H       1  UNL1        0.0660
     32 H           5.7741    2.4631    0.0000 H       1  UNL1        0.0660
     33 H           6.0010    3.3100    0.0000 H       1  UNL1        0.0660
     34 H           5.1541    3.5369    0.0000 H       1  UNL1        0.0660
@<TRIPOS>BOND
     1     1     5    1
     2     1    25    1
     3     2    10    1
     4     2    14    1
     5     3    11    1
     6     3    15    1
     7     4    12    1
     8     4    16    1
     9     5     6    1
    10     5     7    1
    11     5    17    1
    12     6     8   ar
    13     6     9   ar
    14     7    13    1
    15     7    18    1
    16     7    19    1
    17     8    11   ar
    18     8    20    1
    19     9    10   ar
    20     9    21    1
    21    10    12   ar
    22    11    12   ar
    23    13    22    1
    24    13    23    1
    25    13    24    1
    26    14    26    1
    27    14    27    1
    28    14    28    1
    29    15    29    1
    30    15    30    1
    31    15    31    1
    32    16    32    1
    33    16    33    1
    34    16    34    1
