@<TRIPOS>MOLECULE
IMPHY012827
 106 105 0 0 0
SMALL
GASTEIGER

@<TRIPOS>ATOM
      1 C          12.3923   -0.2500    0.0000 C.3     1  UNL1       -0.0286
      2 C          18.4545    0.2500    0.0000 C.3     1  UNL1       -0.0286
      3 C          11.5263    0.2500    0.0000 C.3     1  UNL1       -0.0308
      4 C          19.3205   -0.2500    0.0000 C.3     1  UNL1       -0.0308
      5 C           8.9282   -0.2500    0.0000 C.3     1  UNL1       -0.0286
      6 C          21.9186    0.2500    0.0000 C.3     1  UNL1       -0.0286
      7 C          13.2583    0.2500    0.0000 C.2     1  UNL1       -0.0762
      8 C          17.5885   -0.2500    0.0000 C.2     1  UNL1       -0.0762
      9 C          14.9904    0.2500    0.0000 C.3     1  UNL1       -0.0311
     10 C          15.8564   -0.2500    0.0000 C.3     1  UNL1       -0.0311
     11 C           9.7942    0.2500    0.0000 C.2     1  UNL1       -0.0762
     12 C          21.0526   -0.2500    0.0000 C.2     1  UNL1       -0.0762
     13 C           8.0622    0.2500    0.0000 C.3     1  UNL1       -0.0308
     14 C          22.7846   -0.2500    0.0000 C.3     1  UNL1       -0.0308
     15 C          10.6603   -0.2500    0.0000 C.2     1  UNL1       -0.0847
     16 C          20.1865    0.2500    0.0000 C.2     1  UNL1       -0.0847
     17 C          14.1244   -0.2500    0.0000 C.2     1  UNL1       -0.0847
     18 C          16.7224    0.2500    0.0000 C.2     1  UNL1       -0.0847
     19 C           6.3301    0.2500    0.0000 C.2     1  UNL1       -0.0762
     20 C          24.5167   -0.2500    0.0000 C.2     1  UNL1       -0.0762
     21 C           7.1962   -0.2500    0.0000 C.2     1  UNL1       -0.0847
     22 C          23.6506    0.2500    0.0000 C.2     1  UNL1       -0.0847
     23 C           5.4641   -0.2500    0.0000 C.3     1  UNL1       -0.0286
     24 C          25.3827    0.2500    0.0000 C.3     1  UNL1       -0.0286
     25 C          13.2583    1.2500    0.0000 C.3     1  UNL1       -0.0438
     26 C          17.5885   -1.2500    0.0000 C.3     1  UNL1       -0.0438
     27 C           9.7942    1.2500    0.0000 C.3     1  UNL1       -0.0438
     28 C          21.0526   -1.2500    0.0000 C.3     1  UNL1       -0.0438
     29 C           4.5981    0.2500    0.0000 C.3     1  UNL1       -0.0308
     30 C          26.2487   -0.2500    0.0000 C.3     1  UNL1       -0.0308
     31 C           6.3301    1.2500    0.0000 C.3     1  UNL1       -0.0438
     32 C          24.5167   -1.2500    0.0000 C.3     1  UNL1       -0.0438
     33 C           3.7320   -0.2500    0.0000 C.2     1  UNL1       -0.0850
     34 C          27.1147    0.2500    0.0000 C.2     1  UNL1       -0.0850
     35 C           2.8660    0.2500    0.0000 C.2     1  UNL1       -0.0796
     36 C          27.9808   -0.2500    0.0000 C.2     1  UNL1       -0.0796
     37 C           2.0000   -0.2500    0.0000 C.3     1  UNL1       -0.0440
     38 C           2.8660    1.2500    0.0000 C.3     1  UNL1       -0.0440
     39 C          28.8468    0.2500    0.0000 C.3     1  UNL1       -0.0440
     40 C          27.9808   -1.2500    0.0000 C.3     1  UNL1       -0.0440
     41 H          11.9938   -0.7249    0.0000 H       1  UNL1        0.0313
     42 H          12.7908   -0.7249    0.0000 H       1  UNL1        0.0313
     43 H          18.8530    0.7249    0.0000 H       1  UNL1        0.0313
     44 H          18.0560    0.7249    0.0000 H       1  UNL1        0.0313
     45 H          11.9248    0.7249    0.0000 H       1  UNL1        0.0310
     46 H          11.1278    0.7249    0.0000 H       1  UNL1        0.0310
     47 H          18.9220   -0.7249    0.0000 H       1  UNL1        0.0310
     48 H          19.7190   -0.7249    0.0000 H       1  UNL1        0.0310
     49 H           8.5297   -0.7249    0.0000 H       1  UNL1        0.0313
     50 H           9.3267   -0.7249    0.0000 H       1  UNL1        0.0313
     51 H          22.3171    0.7249    0.0000 H       1  UNL1        0.0313
     52 H          21.5201    0.7249    0.0000 H       1  UNL1        0.0313
     53 H          15.3889    0.7249    0.0000 H       1  UNL1        0.0310
     54 H          14.5919    0.7249    0.0000 H       1  UNL1        0.0310
     55 H          15.4579   -0.7249    0.0000 H       1  UNL1        0.0310
     56 H          16.2549   -0.7249    0.0000 H       1  UNL1        0.0310
     57 H           8.4607    0.7249    0.0000 H       1  UNL1        0.0310
     58 H           7.6636    0.7249    0.0000 H       1  UNL1        0.0310
     59 H          22.3861   -0.7249    0.0000 H       1  UNL1        0.0310
     60 H          23.1831   -0.7249    0.0000 H       1  UNL1        0.0310
     61 H          10.6603   -0.8700    0.0000 H       1  UNL1        0.0572
     62 H          20.1865    0.8700    0.0000 H       1  UNL1        0.0572
     63 H          14.1244   -0.8700    0.0000 H       1  UNL1        0.0572
     64 H          16.7224    0.8700    0.0000 H       1  UNL1        0.0572
     65 H           7.1962   -0.8700    0.0000 H       1  UNL1        0.0572
     66 H          23.6506    0.8700    0.0000 H       1  UNL1        0.0572
     67 H           5.0656   -0.7249    0.0000 H       1  UNL1        0.0313
     68 H           5.8626   -0.7249    0.0000 H       1  UNL1        0.0313
     69 H          25.7812    0.7249    0.0000 H       1  UNL1        0.0313
     70 H          24.9842    0.7249    0.0000 H       1  UNL1        0.0313
     71 H          13.8783    1.2500    0.0000 H       1  UNL1        0.0274
     72 H          13.2583    1.8700    0.0000 H       1  UNL1        0.0274
     73 H          12.6383    1.2500    0.0000 H       1  UNL1        0.0274
     74 H          16.9685   -1.2500    0.0000 H       1  UNL1        0.0274
     75 H          17.5885   -1.8700    0.0000 H       1  UNL1        0.0274
     76 H          18.2085   -1.2500    0.0000 H       1  UNL1        0.0274
     77 H          10.4142    1.2500    0.0000 H       1  UNL1        0.0274
     78 H           9.7942    1.8700    0.0000 H       1  UNL1        0.0274
     79 H           9.1742    1.2500    0.0000 H       1  UNL1        0.0274
     80 H          20.4326   -1.2500    0.0000 H       1  UNL1        0.0274
     81 H          21.0526   -1.8700    0.0000 H       1  UNL1        0.0274
     82 H          21.6726   -1.2500    0.0000 H       1  UNL1        0.0274
     83 H           4.9966    0.7249    0.0000 H       1  UNL1        0.0310
     84 H           4.1996    0.7249    0.0000 H       1  UNL1        0.0310
     85 H          25.8502   -0.7249    0.0000 H       1  UNL1        0.0310
     86 H          26.6472   -0.7249    0.0000 H       1  UNL1        0.0310
     87 H           6.9501    1.2500    0.0000 H       1  UNL1        0.0274
     88 H           6.3301    1.8700    0.0000 H       1  UNL1        0.0274
     89 H           5.7101    1.2500    0.0000 H       1  UNL1        0.0274
     90 H          23.8967   -1.2500    0.0000 H       1  UNL1        0.0274
     91 H          24.5167   -1.8700    0.0000 H       1  UNL1        0.0274
     92 H          25.1367   -1.2500    0.0000 H       1  UNL1        0.0274
     93 H           3.7320   -0.8700    0.0000 H       1  UNL1        0.0572
     94 H          27.1147    0.8700    0.0000 H       1  UNL1        0.0572
     95 H           1.6900    0.2869    0.0000 H       1  UNL1        0.0274
     96 H           1.4631   -0.5600    0.0000 H       1  UNL1        0.0274
     97 H           2.3100   -0.7869    0.0000 H       1  UNL1        0.0274
     98 H           3.4860    1.2500    0.0000 H       1  UNL1        0.0274
     99 H           2.8660    1.8700    0.0000 H       1  UNL1        0.0274
    100 H           2.2460    1.2500    0.0000 H       1  UNL1        0.0274
    101 H          29.1568   -0.2869    0.0000 H       1  UNL1        0.0274
    102 H          29.3837    0.5600    0.0000 H       1  UNL1        0.0274
    103 H          28.5368    0.7869    0.0000 H       1  UNL1        0.0274
    104 H          27.3608   -1.2500    0.0000 H       1  UNL1        0.0274
    105 H          27.9808   -1.8700    0.0000 H       1  UNL1        0.0274
    106 H          28.6008   -1.2500    0.0000 H       1  UNL1        0.0274
@<TRIPOS>BOND
     1     1     3    1
     2     1     7    1
     3     1    41    1
     4     1    42    1
     5     2     4    1
     6     2     8    1
     7     2    43    1
     8     2    44    1
     9     3    15    1
    10     3    45    1
    11     3    46    1
    12     4    16    1
    13     4    47    1
    14     4    48    1
    15     5    11    1
    16     5    13    1
    17     5    49    1
    18     5    50    1
    19     6    12    1
    20     6    14    1
    21     6    51    1
    22     6    52    1
    23     7    17    2
    24     7    25    1
    25     8    18    2
    26     8    26    1
    27     9    10    1
    28     9    17    1
    29     9    53    1
    30     9    54    1
    31    10    18    1
    32    10    55    1
    33    10    56    1
    34    11    15    2
    35    11    27    1
    36    12    16    2
    37    12    28    1
    38    13    21    1
    39    13    57    1
    40    13    58    1
    41    14    22    1
    42    14    59    1
    43    14    60    1
    44    15    61    1
    45    16    62    1
    46    17    63    1
    47    18    64    1
    48    19    21    2
    49    19    23    1
    50    19    31    1
    51    20    22    2
    52    20    24    1
    53    20    32    1
    54    21    65    1
    55    22    66    1
    56    23    29    1
    57    23    67    1
    58    23    68    1
    59    24    30    1
    60    24    69    1
    61    24    70    1
    62    25    71    1
    63    25    72    1
    64    25    73    1
    65    26    74    1
    66    26    75    1
    67    26    76    1
    68    27    77    1
    69    27    78    1
    70    27    79    1
    71    28    80    1
    72    28    81    1
    73    28    82    1
    74    29    33    1
    75    29    83    1
    76    29    84    1
    77    30    34    1
    78    30    85    1
    79    30    86    1
    80    31    87    1
    81    31    88    1
    82    31    89    1
    83    32    90    1
    84    32    91    1
    85    32    92    1
    86    33    35    2
    87    33    93    1
    88    34    36    2
    89    34    94    1
    90    35    37    1
    91    35    38    1
    92    36    39    1
    93    36    40    1
    94    37    95    1
    95    37    96    1
    96    37    97    1
    97    38    98    1
    98    38    99    1
    99    38   100    1
   100    39   101    1
   101    39   102    1
   102    39   103    1
   103    40   104    1
   104    40   105    1
   105    40   106    1
