@<TRIPOS>MOLECULE
IMPHY006203
 38 39 0 0 0
SMALL
GASTEIGER

@<TRIPOS>ATOM
      1 O           2.0000    3.0000    0.0000 O.2     1  UNL1       -0.2961
      2 C           4.5981   -1.5000    0.0000 C.3     1  UNL1       -0.0162
      3 C           3.7320   -2.0000    0.0000 C.3     1  UNL1       -0.0373
      4 C           4.5981   -0.5000    0.0000 C.2     1  UNL1       -0.0604
      5 C           3.7320    0.0000    0.0000 C.3     1  UNL1       -0.0007
      6 C           5.5443   -1.8047    0.0000 C.3     1  UNL1       -0.0426
      7 C           2.8660   -1.5000    0.0000 C.3     1  UNL1       -0.0491
      8 C           2.8660   -0.5000    0.0000 C.3     1  UNL1       -0.0428
      9 C           6.1279   -1.0000    0.0000 C.3     1  UNL1       -0.0312
     10 C           5.5443   -0.1953    0.0000 C.2     1  UNL1       -0.0725
     11 C           3.7320   -3.0000    0.0000 C.3     1  UNL1       -0.0619
     12 C           3.7320    1.0000    0.0000 C.2     1  UNL1       -0.0710
     13 C           5.8550    0.7553    0.0000 C.3     1  UNL1       -0.0435
     14 C           2.8660    1.5000    0.0000 C.2     1  UNL1       -0.0146
     15 C           2.0000    1.0000    0.0000 C.3     1  UNL1       -0.0370
     16 C           2.8660    2.5000    0.0000 C.2     1  UNL1        0.1457
     17 H           4.6880   -2.3452    0.0000 H       1  UNL1        0.0349
     18 H           4.2690   -2.3100    0.0000 H       1  UNL1        0.0304
     19 H           4.2690    0.3100    0.0000 H       1  UNL1        0.0388
     20 H           5.2933   -2.3716    0.0000 H       1  UNL1        0.0274
     21 H           6.0817   -2.1140    0.0000 H       1  UNL1        0.0274
     22 H           2.2554   -1.3923    0.0000 H       1  UNL1        0.0268
     23 H           2.6540   -2.0826    0.0000 H       1  UNL1        0.0268
     24 H           2.6540    0.0826    0.0000 H       1  UNL1        0.0274
     25 H           2.2554   -0.6077    0.0000 H       1  UNL1        0.0274
     26 H           6.5888   -1.4147    0.0000 H       1  UNL1        0.0310
     27 H           6.5888   -0.5853    0.0000 H       1  UNL1        0.0310
     28 H           3.1120   -3.0000    0.0000 H       1  UNL1        0.0233
     29 H           3.7320   -3.6200    0.0000 H       1  UNL1        0.0233
     30 H           4.3520   -3.0000    0.0000 H       1  UNL1        0.0233
     31 H           4.2690    1.3100    0.0000 H       1  UNL1        0.0582
     32 H           6.4443    0.5626    0.0000 H       1  UNL1        0.0274
     33 H           6.0476    1.3446    0.0000 H       1  UNL1        0.0274
     34 H           5.2656    0.9479    0.0000 H       1  UNL1        0.0274
     35 H           1.6900    1.5369    0.0000 H       1  UNL1        0.0278
     36 H           1.4631    0.6900    0.0000 H       1  UNL1        0.0278
     37 H           2.3100    0.4631    0.0000 H       1  UNL1        0.0278
     38 H           3.4030    2.8100    0.0000 H       1  UNL1        0.1078
@<TRIPOS>BOND
     1     1    16    2
     2     2     3    1
     3     2     4    1
     4     2     6    1
     5     2    17    1
     6     3     7    1
     7     3    11    1
     8     3    18    1
     9     4     5    1
    10     4    10    2
    11     5     8    1
    12     5    12    1
    13     5    19    1
    14     6     9    1
    15     6    20    1
    16     6    21    1
    17     7     8    1
    18     7    22    1
    19     7    23    1
    20     8    24    1
    21     8    25    1
    22     9    10    1
    23     9    26    1
    24     9    27    1
    25    10    13    1
    26    11    28    1
    27    11    29    1
    28    11    30    1
    29    12    14    2
    30    12    31    1
    31    13    32    1
    32    13    33    1
    33    13    34    1
    34    14    15    1
    35    14    16    1
    36    15    35    1
    37    15    36    1
    38    15    37    1
    39    16    38    1
