@<TRIPOS>MOLECULE
IMPHY015838
 17 17 0 0 0
SMALL
GASTEIGER

@<TRIPOS>ATOM
      1 O           3.7320    1.2500    0.0000 O.3     1  UNL1       -0.4644
      2 O           2.0000    1.2500    0.0000 O.2     1  UNL1       -0.2449
      3 N           3.7320   -1.7500    0.0000 N.ar    1  UNL1       -0.2624
      4 C           2.8660   -0.2500    0.0000 C.ar    1  UNL1        0.0770
      5 C           2.0000   -0.7500    0.0000 C.ar    1  UNL1       -0.0449
      6 C           3.7320   -0.7500    0.0000 C.ar    1  UNL1        0.0415
      7 C           2.8660    0.7500    0.0000 C.2     1  UNL1        0.3404
      8 C           2.0000   -1.7500    0.0000 C.ar    1  UNL1       -0.0428
      9 C           2.8660   -2.2500    0.0000 C.ar    1  UNL1        0.0276
     10 C           3.7320    2.2500    0.0000 C.3     1  UNL1        0.0820
     11 H           1.4631   -0.4400    0.0000 H       1  UNL1        0.0627
     12 H           4.2690   -0.4400    0.0000 H       1  UNL1        0.0838
     13 H           1.4631   -2.0600    0.0000 H       1  UNL1        0.0633
     14 H           2.8660   -2.8700    0.0000 H       1  UNL1        0.0829
     15 H           4.3520    2.2500    0.0000 H       1  UNL1        0.0661
     16 H           3.7320    2.8700    0.0000 H       1  UNL1        0.0661
     17 H           3.1120    2.2500    0.0000 H       1  UNL1        0.0661
@<TRIPOS>BOND
     1     1     7    1
     2     1    10    1
     3     2     7    2
     4     3     6   ar
     5     3     9   ar
     6     4     5   ar
     7     4     6   ar
     8     4     7    1
     9     5     8   ar
    10     5    11    1
    11     6    12    1
    12     8     9   ar
    13     8    13    1
    14     9    14    1
    15    10    15    1
    16    10    16    1
    17    10    17    1
