@<TRIPOS>MOLECULE
IMPHY002238
 82 86 0 0 0
SMALL
GASTEIGER

@<TRIPOS>ATOM
      1 O           2.0000   -3.5059    0.0000 O.2     1  UNL1       -0.2968
      2 O          12.5143    4.2649    0.0000 O.3     1  UNL1       -0.4802
      3 O          12.8584    2.5674    0.0000 O.2     1  UNL1       -0.2504
      4 C           5.5301   -1.4817    0.0000 C.3     1  UNL1       -0.0194
      5 C           4.6641   -1.9817    0.0000 C.3     1  UNL1       -0.0187
      6 C           4.6638   -0.9813    0.0000 C.3     1  UNL1       -0.0401
      7 C           6.3961   -1.9817    0.0000 C.3     1  UNL1       -0.0289
      8 C           7.3062   -1.4749    0.0000 C.3     1  UNL1       -0.0231
      9 C           4.6641   -2.9817    0.0000 C.3     1  UNL1       -0.0230
     10 C           5.5141   -0.4402    0.0000 C.3     1  UNL1       -0.0460
     11 C           7.3142   -0.4333    0.0000 C.3     1  UNL1       -0.0233
     12 C           3.7702   -1.4470    0.0000 C.3     1  UNL1       -0.0399
     13 C           6.3961   -2.9817    0.0000 C.3     1  UNL1       -0.0489
     14 C           6.4121    0.0876    0.0000 C.3     1  UNL1       -0.0463
     15 C           5.5301   -3.4817    0.0000 C.3     1  UNL1       -0.0485
     16 C           3.7702   -3.5164    0.0000 C.3     1  UNL1        0.0267
     17 C           8.3022   -0.1235    0.0000 C.3     1  UNL1       -0.0325
     18 C           8.2893   -1.7999    0.0000 C.3     1  UNL1       -0.0466
     19 C           8.9036   -0.9663    0.0000 C.3     1  UNL1       -0.0489
     20 C           2.8641   -1.9609    0.0000 C.3     1  UNL1        0.0069
     21 C           7.2984   -2.4748    0.0000 C.3     1  UNL1       -0.0588
     22 C           7.3219    0.5667    0.0000 C.3     1  UNL1       -0.0588
     23 C           2.8641   -3.0025    0.0000 C.2     1  UNL1        0.1392
     24 C           8.6202    0.8246    0.0000 C.3     1  UNL1       -0.0402
     25 C           3.2802   -4.3881    0.0000 C.3     1  UNL1       -0.0528
     26 C           4.2801   -4.3766    0.0000 C.3     1  UNL1       -0.0528
     27 C           9.6003    1.0233    0.0000 C.3     1  UNL1       -0.0465
     28 C           7.9581    1.5741    0.0000 C.3     1  UNL1       -0.0621
     29 C           9.9182    1.9714    0.0000 C.3     1  UNL1       -0.0310
     30 C          10.8983    2.1701    0.0000 C.2     1  UNL1       -0.0633
     31 C          11.2163    3.1182    0.0000 C.3     1  UNL1        0.0742
     32 C          11.5604    1.4206    0.0000 C.2     1  UNL1       -0.0987
     33 C          10.5542    3.8676    0.0000 C.3     1  UNL1       -0.0485
     34 C          12.1964    3.3168    0.0000 C.2     1  UNL1        0.3116
     35 H           4.8759   -0.3987    0.0000 H       1  UNL1        0.0276
     36 H           4.0532   -0.8737    0.0000 H       1  UNL1        0.0276
     37 H           7.1290   -2.4124    0.0000 H       1  UNL1        0.0312
     38 H           4.6706   -3.8317    0.0000 H       1  UNL1        0.0316
     39 H           5.2960    0.1402    0.0000 H       1  UNL1        0.0271
     40 H           4.9049   -0.5557    0.0000 H       1  UNL1        0.0271
     41 H           4.1748   -0.9773    0.0000 H       1  UNL1        0.0275
     42 H           3.3765   -0.9680    0.0000 H       1  UNL1        0.0275
     43 H           6.6082   -3.5643    0.0000 H       1  UNL1        0.0268
     44 H           7.0067   -2.8740    0.0000 H       1  UNL1        0.0268
     45 H           6.8094    0.5635    0.0000 H       1  UNL1        0.0271
     46 H           6.0111    0.5604    0.0000 H       1  UNL1        0.0271
     47 H           5.1316   -3.9567    0.0000 H       1  UNL1        0.0268
     48 H           5.9286   -3.9567    0.0000 H       1  UNL1        0.0268
     49 H           9.1429    0.0019    0.0000 H       1  UNL1        0.0309
     50 H           8.0339   -2.3648    0.0000 H       1  UNL1        0.0271
     51 H           8.8243   -2.1132    0.0000 H       1  UNL1        0.0271
     52 H           9.3613   -1.3846    0.0000 H       1  UNL1        0.0268
     53 H           9.3677   -0.5552    0.0000 H       1  UNL1        0.0268
     54 H           2.6550   -1.3772    0.0000 H       1  UNL1        0.0342
     55 H           2.2532   -2.0670    0.0000 H       1  UNL1        0.0342
     56 H           6.6785   -2.4700    0.0000 H       1  UNL1        0.0235
     57 H           7.2937   -3.0948    0.0000 H       1  UNL1        0.0235
     58 H           7.9184   -2.4796    0.0000 H       1  UNL1        0.0235
     59 H           7.9419    0.5619    0.0000 H       1  UNL1        0.0235
     60 H           7.3267    1.1867    0.0000 H       1  UNL1        0.0235
     61 H           6.7019    0.5715    0.0000 H       1  UNL1        0.0235
     62 H           8.8173    1.4125    0.0000 H       1  UNL1        0.0301
     63 H           3.7468   -4.6927    0.0000 H       1  UNL1        0.0239
     64 H           4.5963   -4.9099    0.0000 H       1  UNL1        0.0239
     65 H           2.7397   -4.0844    0.0000 H       1  UNL1        0.0239
     66 H           2.9764   -4.9286    0.0000 H       1  UNL1        0.0239
     67 H           3.8207   -4.6919    0.0000 H       1  UNL1        0.0239
     68 H           4.8134   -4.0604    0.0000 H       1  UNL1        0.0239
     69 H           9.6160    0.4035    0.0000 H       1  UNL1        0.0271
     70 H          10.2134    0.9312    0.0000 H       1  UNL1        0.0271
     71 H           8.4228    1.9846    0.0000 H       1  UNL1        0.0233
     72 H           7.5476    2.0387    0.0000 H       1  UNL1        0.0233
     73 H           7.4935    1.1636    0.0000 H       1  UNL1        0.0233
     74 H           9.9024    2.5912    0.0000 H       1  UNL1        0.0310
     75 H           9.3051    2.0635    0.0000 H       1  UNL1        0.0310
     76 H          10.6086    2.9950    0.0000 H       1  UNL1        0.0456
     77 H          11.3632    0.8328    0.0000 H       1  UNL1        0.0535
     78 H          12.1680    1.5438    0.0000 H       1  UNL1        0.0535
     79 H          11.0188    4.2781    0.0000 H       1  UNL1        0.0241
     80 H          10.1437    4.3322    0.0000 H       1  UNL1        0.0241
     81 H          10.0896    3.4571    0.0000 H       1  UNL1        0.0241
     82 H          13.1220    4.3881    0.0000 H       1  UNL1        0.2951
@<TRIPOS>BOND
     1     1    23    2
     2     2    34    1
     3     2    82    1
     4     3    34    2
     5     4     5    1
     6     4     6    1
     7     4     7    1
     8     4    10    1
     9     5     6    1
    10     5     9    1
    11     5    12    1
    12     6    35    1
    13     6    36    1
    14     7     8    1
    15     7    13    1
    16     7    37    1
    17     8    11    1
    18     8    18    1
    19     8    21    1
    20     9    15    1
    21     9    16    1
    22     9    38    1
    23    10    14    1
    24    10    39    1
    25    10    40    1
    26    11    14    1
    27    11    17    1
    28    11    22    1
    29    12    20    1
    30    12    41    1
    31    12    42    1
    32    13    15    1
    33    13    43    1
    34    13    44    1
    35    14    45    1
    36    14    46    1
    37    15    47    1
    38    15    48    1
    39    16    23    1
    40    16    25    1
    41    16    26    1
    42    17    19    1
    43    17    24    1
    44    17    49    1
    45    18    19    1
    46    18    50    1
    47    18    51    1
    48    19    52    1
    49    19    53    1
    50    20    23    1
    51    20    54    1
    52    20    55    1
    53    21    56    1
    54    21    57    1
    55    21    58    1
    56    22    59    1
    57    22    60    1
    58    22    61    1
    59    24    27    1
    60    24    28    1
    61    24    62    1
    62    25    65    1
    63    25    66    1
    64    25    67    1
    65    26    63    1
    66    26    64    1
    67    26    68    1
    68    27    29    1
    69    27    69    1
    70    27    70    1
    71    28    71    1
    72    28    72    1
    73    28    73    1
    74    29    30    1
    75    29    74    1
    76    29    75    1
    77    30    31    1
    78    30    32    2
    79    31    33    1
    80    31    34    1
    81    31    76    1
    82    32    77    1
    83    32    78    1
    84    33    79    1
    85    33    80    1
    86    33    81    1
