@<TRIPOS>MOLECULE
IMPHY015600
 34 33 0 0 0
SMALL
GASTEIGER

@<TRIPOS>ATOM
      1 O           2.5369    0.4400    0.0000 O.3     1  UNL1       -0.3950
      2 C           5.1350   -0.0600    0.0000 C.3     1  UNL1       -0.0237
      3 C           8.5991   -0.0600    0.0000 C.3     1  UNL1       -0.0496
      4 C           7.7331    0.4400    0.0000 C.3     1  UNL1       -0.0348
      5 C           4.2690    0.4400    0.0000 C.3     1  UNL1       -0.0237
      6 C           9.4651    0.4400    0.0000 C.3     1  UNL1       -0.0530
      7 C           6.0010    0.4400    0.0000 C.2     1  UNL1       -0.0850
      8 C           6.8671   -0.0600    0.0000 C.2     1  UNL1       -0.0877
      9 C          10.3312   -0.0600    0.0000 C.3     1  UNL1       -0.0559
     10 C           5.1350   -1.0600    0.0000 C.3     1  UNL1       -0.0589
     11 C           3.4030   -0.0600    0.0000 C.3     1  UNL1        0.0447
     12 C          11.1972    0.4400    0.0000 C.3     1  UNL1       -0.0653
     13 H           5.6720   -0.3700    0.0000 H       1  UNL1        0.0341
     14 H           8.2006   -0.5349    0.0000 H       1  UNL1        0.0268
     15 H           8.9976   -0.5349    0.0000 H       1  UNL1        0.0268
     16 H           8.1316    0.9149    0.0000 H       1  UNL1        0.0307
     17 H           7.3346    0.9149    0.0000 H       1  UNL1        0.0307
     18 H           4.6675    0.9149    0.0000 H       1  UNL1        0.0293
     19 H           3.8705    0.9149    0.0000 H       1  UNL1        0.0293
     20 H           9.8637    0.9149    0.0000 H       1  UNL1        0.0265
     21 H           9.0666    0.9149    0.0000 H       1  UNL1        0.0265
     22 H           6.0010    1.0600    0.0000 H       1  UNL1        0.0572
     23 H           6.8671   -0.6800    0.0000 H       1  UNL1        0.0569
     24 H           9.9326   -0.5349    0.0000 H       1  UNL1        0.0263
     25 H          10.7297   -0.5349    0.0000 H       1  UNL1        0.0263
     26 H           4.5150   -1.0600    0.0000 H       1  UNL1        0.0235
     27 H           5.1350   -1.6800    0.0000 H       1  UNL1        0.0235
     28 H           5.7550   -1.0600    0.0000 H       1  UNL1        0.0235
     29 H           3.0044   -0.5349    0.0000 H       1  UNL1        0.0557
     30 H           3.8015   -0.5349    0.0000 H       1  UNL1        0.0557
     31 H          11.5072   -0.0969    0.0000 H       1  UNL1        0.0230
     32 H          11.7341    0.7500    0.0000 H       1  UNL1        0.0230
     33 H          10.8872    0.9769    0.0000 H       1  UNL1        0.0230
     34 H           2.0000    0.1300    0.0000 H       1  UNL1        0.2094
@<TRIPOS>BOND
     1     1    11    1
     2     1    34    1
     3     2     5    1
     4     2     7    1
     5     2    10    1
     6     2    13    1
     7     3     4    1
     8     3     6    1
     9     3    14    1
    10     3    15    1
    11     4     8    1
    12     4    16    1
    13     4    17    1
    14     5    11    1
    15     5    18    1
    16     5    19    1
    17     6     9    1
    18     6    20    1
    19     6    21    1
    20     7     8    2
    21     7    22    1
    22     8    23    1
    23     9    12    1
    24     9    24    1
    25     9    25    1
    26    10    26    1
    27    10    27    1
    28    10    28    1
    29    11    29    1
    30    11    30    1
    31    12    31    1
    32    12    32    1
    33    12    33    1
