@<TRIPOS>MOLECULE
IMPHY003175
 136 137 0 0 0
SMALL
GASTEIGER

@<TRIPOS>ATOM
      1 NA         20.7235    1.2500    0.0000 Na      1  UNL1        0.0000
      2 O          16.3933    1.7500    0.0000 O.3     2  UNL2        0.0000
      3 O          16.3933    3.7500    0.0000 O.3     2  UNL2        0.0000
      4 O          18.9914    3.2500    0.0000 O.3     2  UNL2        0.0000
      5 O          16.3933   -1.2500    0.0000 O.3     2  UNL2        0.0000
      6 O          18.1254   -1.2500    0.0000 O.3     2  UNL2        0.0000
      7 O          14.6613    1.7500    0.0000 O.3     2  UNL2        0.0000
      8 O          19.8574    1.7500    0.0000 O.co2   2  UNL2       -0.5000
      9 O          13.7953    4.2500    0.0000 O.3     2  UNL2        0.0000
     10 O          18.9914    0.2500    0.0000 O.co2   2  UNL2       -0.5000
     11 O          16.3933   -3.2500    0.0000 O.3     2  UNL2        0.0000
     12 O          19.8574   -3.2500    0.0000 O.3     2  UNL2        0.0000
     13 O          11.1972    1.7500    0.0000 O.2     2  UNL2        0.0000
     14 O           9.4651    1.7500    0.0000 O.3     2  UNL2        0.0000
     15 O           5.1350    3.2500    0.0000 O.3     2  UNL2        0.0000
     16 O           2.5369    1.7500    0.0000 O.3     2  UNL2        0.0000
     17 O           7.7331    1.7500    0.0000 O.3     2  UNL2        0.0000
     18 O           6.0010    1.7500    0.0000 O.2     2  UNL2        0.0000
     19 N          18.1254   -4.2500    0.0000 N.3     2  UNL2        0.0000
     20 C          17.2594    1.2500    0.0000 C.3     2  UNL2        0.0000
     21 C          16.3933    2.7500    0.0000 C.3     2  UNL2        0.0000
     22 C          18.1254    1.7500    0.0000 C.3     2  UNL2        0.0000
     23 C          18.1254    2.7500    0.0000 C.3     2  UNL2        0.0000
     24 C          17.2594    3.2500    0.0000 C.3     2  UNL2        0.0000
     25 C          15.5273    3.2500    0.0000 C.3     2  UNL2        0.0000
     26 C          17.2594    0.2500    0.0000 C.3     2  UNL2        0.0000
     27 C          14.6613    2.7500    0.0000 C.3     2  UNL2        0.0000
     28 C          16.3933   -0.2500    0.0000 C.3     2  UNL2        0.0000
     29 C          18.9914    1.2500    0.0000 C.2     2  UNL2        0.0000
     30 C          13.7953    3.2500    0.0000 C.3     2  UNL2        0.0000
     31 C          17.2594   -1.7500    0.0000 C.3     2  UNL2        0.0000
     32 C          17.2594   -2.7500    0.0000 C.3     2  UNL2        0.0000
     33 C          18.1254   -3.2500    0.0000 C.3     2  UNL2        0.0000
     34 C          18.9914   -2.7500    0.0000 C.3     2  UNL2        0.0000
     35 C          18.9914   -1.7500    0.0000 C.3     2  UNL2        0.0000
     36 C          12.9292    2.7500    0.0000 C.3     2  UNL2        0.0000
     37 C          15.5273    0.2500    0.0000 C.2     2  UNL2        0.0000
     38 C          12.0632    3.2500    0.0000 C.3     2  UNL2        0.0000
     39 C          19.8574   -1.2500    0.0000 C.3     2  UNL2        0.0000
     40 C          14.6613   -0.2500    0.0000 C.2     2  UNL2        0.0000
     41 C          11.1972    2.7500    0.0000 C.2     2  UNL2        0.0000
     42 C          10.3312    3.2500    0.0000 C.3     2  UNL2        0.0000
     43 C          13.7953    0.2500    0.0000 C.2     2  UNL2        0.0000
     44 C           9.4651    2.7500    0.0000 C.3     2  UNL2        0.0000
     45 C           8.5991    3.2500    0.0000 C.3     2  UNL2        0.0000
     46 C           4.2690    1.7500    0.0000 C.3     2  UNL2        0.0000
     47 C           7.7331    2.7500    0.0000 C.3     2  UNL2        0.0000
     48 C           3.4030    1.2500    0.0000 C.3     2  UNL2        0.0000
     49 C           4.2690    2.7500    0.0000 C.3     2  UNL2        0.0000
     50 C          12.9292   -0.2500    0.0000 C.2     2  UNL2        0.0000
     51 C           3.4030    0.2500    0.0000 C.3     2  UNL2        0.0000
     52 C           6.8671    3.2500    0.0000 C.3     2  UNL2        0.0000
     53 C           5.1350    1.2500    0.0000 C.3     2  UNL2        0.0000
     54 C           3.4030    3.2500    0.0000 C.3     2  UNL2        0.0000
     55 C           6.0010    2.7500    0.0000 C.2     2  UNL2        0.0000
     56 C           2.5369   -0.2500    0.0000 C.3     2  UNL2        0.0000
     57 C           4.2690   -0.2500    0.0000 C.2     2  UNL2        0.0000
     58 C          12.0632    0.2500    0.0000 C.2     2  UNL2        0.0000
     59 C           5.1350    0.2500    0.0000 C.2     2  UNL2        0.0000
     60 C          11.1972   -0.2500    0.0000 C.2     2  UNL2        0.0000
     61 C           6.0010   -0.2500    0.0000 C.2     2  UNL2        0.0000
     62 C          10.3312    0.2500    0.0000 C.2     2  UNL2        0.0000
     63 C           6.8671    0.2500    0.0000 C.2     2  UNL2        0.0000
     64 C           9.4651   -0.2500    0.0000 C.2     2  UNL2        0.0000
     65 C           7.7331   -0.2500    0.0000 C.2     2  UNL2        0.0000
     66 C           8.5991    0.2500    0.0000 C.2     2  UNL2        0.0000
     67 H          17.7963    0.9400    0.0000 H       2  UNL2        0.0000
     68 H          18.6623    2.0600    0.0000 H       2  UNL2        0.0000
     69 H          18.1254    3.3700    0.0000 H       2  UNL2        0.0000
     70 H          17.6579    3.7250    0.0000 H       2  UNL2        0.0000
     71 H          16.8608    3.7250    0.0000 H       2  UNL2        0.0000
     72 H          15.9258    3.7250    0.0000 H       2  UNL2        0.0000
     73 H          15.1288    3.7250    0.0000 H       2  UNL2        0.0000
     74 H          17.4714   -0.3326    0.0000 H       2  UNL2        0.0000
     75 H          17.8699    0.3577    0.0000 H       2  UNL2        0.0000
     76 H          15.1982    2.4400    0.0000 H       2  UNL2        0.0000
     77 H          16.9303   -0.5600    0.0000 H       2  UNL2        0.0000
     78 H          13.2583    3.5600    0.0000 H       2  UNL2        0.0000
     79 H          17.2594   -1.1300    0.0000 H       2  UNL2        0.0000
     80 H          16.9303    4.0600    0.0000 H       2  UNL2        0.0000
     81 H          17.2594   -3.3700    0.0000 H       2  UNL2        0.0000
     82 H          18.9914    3.8700    0.0000 H       2  UNL2        0.0000
     83 H          18.6623   -3.5600    0.0000 H       2  UNL2        0.0000
     84 H          19.5284   -2.4400    0.0000 H       2  UNL2        0.0000
     85 H          18.9914   -1.1300    0.0000 H       2  UNL2        0.0000
     86 H          12.5307    2.2750    0.0000 H       2  UNL2        0.0000
     87 H          13.3278    2.2750    0.0000 H       2  UNL2        0.0000
     88 H          15.5273    0.8700    0.0000 H       2  UNL2        0.0000
     89 H          14.1244    1.4400    0.0000 H       2  UNL2        0.0000
     90 H          12.4617    3.7250    0.0000 H       2  UNL2        0.0000
     91 H          11.6647    3.7250    0.0000 H       2  UNL2        0.0000
     92 H          20.1674   -1.7869    0.0000 H       2  UNL2        0.0000
     93 H          20.3944   -0.9400    0.0000 H       2  UNL2        0.0000
     94 H          19.5474   -0.7131    0.0000 H       2  UNL2        0.0000
     95 H          18.6623   -4.5600    0.0000 H       2  UNL2        0.0000
     96 H          17.5885   -4.5600    0.0000 H       2  UNL2        0.0000
     97 H          13.2583    4.5600    0.0000 H       2  UNL2        0.0000
     98 H          16.3933   -3.8700    0.0000 H       2  UNL2        0.0000
     99 H          14.6613   -0.8700    0.0000 H       2  UNL2        0.0000
    100 H          20.3944   -2.9400    0.0000 H       2  UNL2        0.0000
    101 H          10.7297    3.7250    0.0000 H       2  UNL2        0.0000
    102 H           9.9326    3.7250    0.0000 H       2  UNL2        0.0000
    103 H          10.0021    2.4400    0.0000 H       2  UNL2        0.0000
    104 H          13.7953    0.8700    0.0000 H       2  UNL2        0.0000
    105 H           8.9976    3.7250    0.0000 H       2  UNL2        0.0000
    106 H           8.2006    3.7250    0.0000 H       2  UNL2        0.0000
    107 H           4.2690    1.1300    0.0000 H       2  UNL2        0.0000
    108 H           3.4030    1.8700    0.0000 H       2  UNL2        0.0000
    109 H           7.1962    2.4400    0.0000 H       2  UNL2        0.0000
    110 H           4.2690    3.3700    0.0000 H       2  UNL2        0.0000
    111 H           2.8660    0.5600    0.0000 H       2  UNL2        0.0000
    112 H          12.9292   -0.8700    0.0000 H       2  UNL2        0.0000
    113 H           7.2656    3.7250    0.0000 H       2  UNL2        0.0000
    114 H           6.4685    3.7250    0.0000 H       2  UNL2        0.0000
    115 H           4.8250    0.7131    0.0000 H       2  UNL2        0.0000
    116 H           5.6720    0.9400    0.0000 H       2  UNL2        0.0000
    117 H           5.4450    1.7869    0.0000 H       2  UNL2        0.0000
    118 H          10.0021    1.4400    0.0000 H       2  UNL2        0.0000
    119 H           3.7130    3.7869    0.0000 H       2  UNL2        0.0000
    120 H           2.8660    3.5600    0.0000 H       2  UNL2        0.0000
    121 H           3.0930    2.7131    0.0000 H       2  UNL2        0.0000
    122 H           2.2269    0.2869    0.0000 H       2  UNL2        0.0000
    123 H           2.0000   -0.5600    0.0000 H       2  UNL2        0.0000
    124 H           2.8469   -0.7869    0.0000 H       2  UNL2        0.0000
    125 H           4.2690   -0.8700    0.0000 H       2  UNL2        0.0000
    126 H          12.0632    0.8700    0.0000 H       2  UNL2        0.0000
    127 H           2.0000    1.4400    0.0000 H       2  UNL2        0.0000
    128 H           8.2700    1.4400    0.0000 H       2  UNL2        0.0000
    129 H           5.1350    0.8700    0.0000 H       2  UNL2        0.0000
    130 H          11.1972   -0.8700    0.0000 H       2  UNL2        0.0000
    131 H           6.0010   -0.8700    0.0000 H       2  UNL2        0.0000
    132 H          10.3312    0.8700    0.0000 H       2  UNL2        0.0000
    133 H           6.8671    0.8700    0.0000 H       2  UNL2        0.0000
    134 H           9.4651   -0.8700    0.0000 H       2  UNL2        0.0000
    135 H           7.7331   -0.8700    0.0000 H       2  UNL2        0.0000
    136 H           8.5991    0.8700    0.0000 H       2  UNL2        0.0000
@<TRIPOS>UNITY_ATOM_ATTR
1 1
charge 1
8 1
charge -1
@<TRIPOS>BOND
     1     2    20    1
     2     2    21    1
     3     3    21    1
     4     3    80    1
     5     4    23    1
     6     4    82    1
     7     5    28    1
     8     5    31    1
     9     6    31    1
    10     6    35    1
    11     7    27    1
    12     7    89    1
    13     8    29   ar
    14     9    30    1
    15     9    97    1
    16    10    29   ar
    17    11    32    1
    18    11    98    1
    19    12    34    1
    20    12   100    1
    21    13    41    2
    22    14    44    1
    23    14   118    1
    24    15    49    1
    25    15    55    1
    26    16    48    1
    27    16   127    1
    28    17    47    1
    29    17   128    1
    30    18    55    2
    31    19    33    1
    32    19    95    1
    33    19    96    1
    34    20    22    1
    35    20    26    1
    36    20    67    1
    37    21    24    1
    38    21    25    1
    39    22    23    1
    40    22    29    1
    41    22    68    1
    42    23    24    1
    43    23    69    1
    44    24    70    1
    45    24    71    1
    46    25    27    1
    47    25    72    1
    48    25    73    1
    49    26    28    1
    50    26    74    1
    51    26    75    1
    52    27    30    1
    53    27    76    1
    54    28    37    1
    55    28    77    1
    56    30    36    1
    57    30    78    1
    58    31    32    1
    59    31    79    1
    60    32    33    1
    61    32    81    1
    62    33    34    1
    63    33    83    1
    64    34    35    1
    65    34    84    1
    66    35    39    1
    67    35    85    1
    68    36    38    1
    69    36    86    1
    70    36    87    1
    71    37    40    2
    72    37    88    1
    73    38    41    1
    74    38    90    1
    75    38    91    1
    76    39    92    1
    77    39    93    1
    78    39    94    1
    79    40    43    1
    80    40    99    1
    81    41    42    1
    82    42    44    1
    83    42   101    1
    84    42   102    1
    85    43    50    2
    86    43   104    1
    87    44    45    1
    88    44   103    1
    89    45    47    1
    90    45   105    1
    91    45   106    1
    92    46    48    1
    93    46    49    1
    94    46    53    1
    95    46   107    1
    96    47    52    1
    97    47   109    1
    98    48    51    1
    99    48   108    1
   100    49    54    1
   101    49   110    1
   102    50    58    1
   103    50   112    1
   104    51    56    1
   105    51    57    1
   106    51   111    1
   107    52    55    1
   108    52   113    1
   109    52   114    1
   110    53   115    1
   111    53   116    1
   112    53   117    1
   113    54   119    1
   114    54   120    1
   115    54   121    1
   116    56   122    1
   117    56   123    1
   118    56   124    1
   119    57    59    2
   120    57   125    1
   121    58    60    2
   122    58   126    1
   123    59    61    1
   124    59   129    1
   125    60    62    1
   126    60   130    1
   127    61    63    2
   128    61   131    1
   129    62    64    2
   130    62   132    1
   131    63    65    1
   132    63   133    1
   133    64    66    1
   134    64   134    1
   135    65    66    2
   136    65   135    1
   137    66   136    1
