@<TRIPOS>MOLECULE
IMPHY001601
 62 65 0 0 0
SMALL
GASTEIGER

@<TRIPOS>ATOM
      1 N          10.4926    2.2722    0.0000 N.3     1  UNL1       -0.3272
      2 N           2.8641   -2.2416    0.0000 N.3     1  UNL1       -0.3159
      3 C           8.2572    0.8108    0.0000 C.3     1  UNL1       -0.0247
      4 C           8.2572   -0.1892    0.0000 C.3     1  UNL1       -0.0319
      5 C           7.3912   -0.6892    0.0000 C.3     1  UNL1       -0.0307
      6 C           6.5251   -0.1892    0.0000 C.3     1  UNL1       -0.0285
      7 C           9.2034    1.1155    0.0000 C.3     1  UNL1       -0.0204
      8 C           5.6151   -0.6961    0.0000 C.3     1  UNL1       -0.0079
      9 C           7.3912    1.3108    0.0000 C.3     1  UNL1       -0.0468
     10 C           9.2034   -0.4940    0.0000 C.3     1  UNL1       -0.0491
     11 C           6.5251    0.8108    0.0000 C.3     1  UNL1       -0.0486
     12 C           9.7870    0.3108    0.0000 C.3     1  UNL1       -0.0480
     13 C           7.4072   -1.7307    0.0000 C.3     1  UNL1       -0.0311
     14 C           8.2572    1.8108    0.0000 C.3     1  UNL1       -0.0590
     15 C           5.6071   -1.7377    0.0000 C.2     1  UNL1       -0.0658
     16 C           4.6883   -0.1320    0.0000 C.3     1  UNL1       -0.0422
     17 C           9.5141    2.0660    0.0000 C.3     1  UNL1        0.0053
     18 C           6.5092   -2.2585    0.0000 C.2     1  UNL1       -0.0839
     19 C           5.6228    0.3039    0.0000 C.3     1  UNL1       -0.0556
     20 C           4.6717   -2.2874    0.0000 C.3     1  UNL1       -0.0158
     21 C           3.7404   -0.6599    0.0000 C.3     1  UNL1       -0.0365
     22 C           3.7320   -1.7449    0.0000 C.3     1  UNL1        0.0111
     23 C           8.8462    2.8103    0.0000 C.3     1  UNL1       -0.0496
     24 C           2.0000   -1.7382    0.0000 C.3     1  UNL1       -0.0155
     25 H           8.3471   -1.0345    0.0000 H       1  UNL1        0.0309
     26 H           8.1305   -1.1086    0.0000 H       1  UNL1        0.0309
     27 H           7.2612    0.2358    0.0000 H       1  UNL1        0.0312
     28 H          10.0431    1.2474    0.0000 H       1  UNL1        0.0321
     29 H           7.7897    1.7857    0.0000 H       1  UNL1        0.0271
     30 H           6.9926    1.7857    0.0000 H       1  UNL1        0.0271
     31 H           8.9524   -1.0609    0.0000 H       1  UNL1        0.0268
     32 H           9.7408   -0.8032    0.0000 H       1  UNL1        0.0268
     33 H           6.3131    1.3934    0.0000 H       1  UNL1        0.0268
     34 H           5.9145    0.7031    0.0000 H       1  UNL1        0.0268
     35 H          10.2479   -0.1040    0.0000 H       1  UNL1        0.0269
     36 H          10.2479    0.7255    0.0000 H       1  UNL1        0.0269
     37 H           7.6252   -2.3111    0.0000 H       1  UNL1        0.0310
     38 H           8.0164   -1.6152    0.0000 H       1  UNL1        0.0310
     39 H           8.8772    1.8108    0.0000 H       1  UNL1        0.0235
     40 H           8.2572    2.4308    0.0000 H       1  UNL1        0.0235
     41 H           7.6372    1.8108    0.0000 H       1  UNL1        0.0235
     42 H           5.0965    0.3347    0.0000 H       1  UNL1        0.0274
     43 H           4.2984    0.3500    0.0000 H       1  UNL1        0.0274
     44 H           9.7067    2.6553    0.0000 H       1  UNL1        0.0458
     45 H           6.5116   -2.8785    0.0000 H       1  UNL1        0.0572
     46 H           6.2428    0.2991    0.0000 H       1  UNL1        0.0238
     47 H           5.6276    0.9239    0.0000 H       1  UNL1        0.0238
     48 H           5.0028    0.3087    0.0000 H       1  UNL1        0.0238
     49 H           4.2744   -2.7634    0.0000 H       1  UNL1        0.0325
     50 H           5.0726   -2.7603    0.0000 H       1  UNL1        0.0325
     51 H           3.5358   -0.0747    0.0000 H       1  UNL1        0.0281
     52 H           3.1288   -0.7613    0.0000 H       1  UNL1        0.0281
     53 H           3.7308   -2.3649    0.0000 H       1  UNL1        0.0463
     54 H           9.3077    3.2244    0.0000 H       1  UNL1        0.0245
     55 H           8.4322    3.2718    0.0000 H       1  UNL1        0.0245
     56 H           8.3848    2.3963    0.0000 H       1  UNL1        0.0245
     57 H          10.6852    2.8616    0.0000 H       1  UNL1        0.1185
     58 H          10.9066    1.8108    0.0000 H       1  UNL1        0.1185
     59 H           2.8617   -2.8616    0.0000 H       1  UNL1        0.1219
     60 H           2.3121   -1.2025    0.0000 H       1  UNL1        0.0388
     61 H           1.4643   -1.4262    0.0000 H       1  UNL1        0.0388
     62 H           1.6879   -2.2740    0.0000 H       1  UNL1        0.0388
@<TRIPOS>BOND
     1    17     1    1
     2     1    57    1
     3     1    58    1
     4    22     2    1
     5     2    24    1
     6     2    59    1
     7     3     4    1
     8     3     7    1
     9     3     9    1
    10     3    14    1
    11     4     5    1
    12     4    10    1
    13     4    25    1
    14     5     6    1
    15     5    13    1
    16     5    26    1
    17     6     8    1
    18     6    11    1
    19     6    27    1
    20     7    12    1
    21     7    17    1
    22     7    28    1
    23     8    15    1
    24     8    16    1
    25     8    19    1
    26     9    11    1
    27     9    29    1
    28     9    30    1
    29    10    12    1
    30    10    31    1
    31    10    32    1
    32    11    33    1
    33    11    34    1
    34    12    35    1
    35    12    36    1
    36    13    18    1
    37    13    37    1
    38    13    38    1
    39    14    39    1
    40    14    40    1
    41    14    41    1
    42    15    18    2
    43    15    20    1
    44    16    21    1
    45    16    42    1
    46    16    43    1
    47    17    23    1
    48    17    44    1
    49    18    45    1
    50    19    46    1
    51    19    47    1
    52    19    48    1
    53    20    22    1
    54    20    49    1
    55    20    50    1
    56    21    22    1
    57    21    51    1
    58    21    52    1
    59    22    53    1
    60    23    54    1
    61    23    55    1
    62    23    56    1
    63    24    60    1
    64    24    61    1
    65    24    62    1
