@<TRIPOS>MOLECULE
IMPHY010361
 23 24 0 0 0
SMALL
GASTEIGER

@<TRIPOS>ATOM
      1 O           2.8660    2.0204    0.0000 O.3     1  UNL1       -0.3871
      2 O           2.8660   -1.9796    0.0000 O.2     1  UNL1       -0.2919
      3 O           4.6144   -2.0142    0.0000 O.3     1  UNL1       -0.5061
      4 C           2.8660    1.0204    0.0000 C.3     1  UNL1        0.0813
      5 C           2.0000    0.5204    0.0000 C.3     1  UNL1       -0.0157
      6 C           3.7320    0.5204    0.0000 C.ar    1  UNL1       -0.0052
      7 C           2.0000   -0.4796    0.0000 C.3     1  UNL1        0.0132
      8 C           3.7320   -0.4796    0.0000 C.ar    1  UNL1        0.0644
      9 C           2.8660   -0.9796    0.0000 C.2     1  UNL1        0.1671
     10 C           4.6260    1.0550    0.0000 C.ar    1  UNL1       -0.0552
     11 C           4.6260   -1.0143    0.0000 C.ar    1  UNL1        0.1277
     12 C           5.5321    0.5412    0.0000 C.ar    1  UNL1       -0.0579
     13 C           5.5321   -0.5004    0.0000 C.ar    1  UNL1       -0.0195
     14 H           3.4030    1.3304    0.0000 H       1  UNL1        0.0644
     15 H           1.7880    1.1030    0.0000 H       1  UNL1        0.0297
     16 H           1.3894    0.4127    0.0000 H       1  UNL1        0.0297
     17 H           1.3894   -0.3719    0.0000 H       1  UNL1        0.0346
     18 H           1.7880   -1.0622    0.0000 H       1  UNL1        0.0346
     19 H           4.6188    1.6750    0.0000 H       1  UNL1        0.0621
     20 H           6.0678    0.8533    0.0000 H       1  UNL1        0.0619
     21 H           6.0678   -0.8125    0.0000 H       1  UNL1        0.0654
     22 H           2.3291    2.3304    0.0000 H       1  UNL1        0.2102
     23 H           5.1477   -2.3304    0.0000 H       1  UNL1        0.2922
@<TRIPOS>BOND
     1     4     1    1
     2     1    22    1
     3     2     9    2
     4     3    11    1
     5     3    23    1
     6     4     5    1
     7     4     6    1
     8     4    14    1
     9     5     7    1
    10     5    15    1
    11     5    16    1
    12     6     8   ar
    13     6    10   ar
    14     7     9    1
    15     7    17    1
    16     7    18    1
    17     8     9    1
    18     8    11   ar
    19    10    12   ar
    20    10    19    1
    21    11    13   ar
    22    12    13   ar
    23    12    20    1
    24    13    21    1
