@<TRIPOS>MOLECULE
IMPHY002951
 30 30 0 0 0
SMALL
GASTEIGER

@<TRIPOS>ATOM
      1 O           3.8660   -1.1270    0.0000 O.3     1  UNL1       -0.3612
      2 O           2.1340    0.8730    0.0000 O.3     1  UNL1       -0.3890
      3 C           3.0000   -0.6270    0.0000 C.3     1  UNL1        0.0908
      4 C           3.0000    0.3730    0.0000 C.3     1  UNL1        0.0837
      5 C           4.7320   -0.6270    0.0000 C.3     1  UNL1        0.0854
      6 C           3.8660    0.8730    0.0000 C.3     1  UNL1       -0.0213
      7 C           4.7320    0.3730    0.0000 C.3     1  UNL1       -0.0179
      8 C           2.0000   -0.6270    0.0000 C.3     1  UNL1       -0.0336
      9 C           2.5000   -1.4930    0.0000 C.3     1  UNL1       -0.0336
     10 C           5.2320   -1.4930    0.0000 C.3     1  UNL1       -0.0322
     11 C           5.7320   -0.6270    0.0000 C.2     1  UNL1       -0.0599
     12 C           6.2320    0.2390    0.0000 C.2     1  UNL1       -0.1000
     13 H           3.0000    0.9930    0.0000 H       1  UNL1        0.0622
     14 H           4.2646    1.3480    0.0000 H       1  UNL1        0.0292
     15 H           3.4675    1.3480    0.0000 H       1  UNL1        0.0292
     16 H           5.3426    0.2654    0.0000 H       1  UNL1        0.0297
     17 H           4.9441    0.9556    0.0000 H       1  UNL1        0.0297
     18 H           2.0000   -0.0070    0.0000 H       1  UNL1        0.0258
     19 H           1.3800   -0.6270    0.0000 H       1  UNL1        0.0258
     20 H           2.0000   -1.2470    0.0000 H       1  UNL1        0.0258
     21 H           1.9631   -1.1830    0.0000 H       1  UNL1        0.0258
     22 H           2.1900   -2.0300    0.0000 H       1  UNL1        0.0258
     23 H           3.0369   -1.8030    0.0000 H       1  UNL1        0.0258
     24 H           4.6951   -1.8030    0.0000 H       1  UNL1        0.0260
     25 H           5.5420   -2.0300    0.0000 H       1  UNL1        0.0260
     26 H           5.7690   -1.1830    0.0000 H       1  UNL1        0.0260
     27 H           6.0420   -1.1639    0.0000 H       1  UNL1        0.0594
     28 H           2.1340    1.4930    0.0000 H       1  UNL1        0.2099
     29 H           6.8520    0.2390    0.0000 H       1  UNL1        0.0533
     30 H           5.9220    0.7760    0.0000 H       1  UNL1        0.0533
@<TRIPOS>BOND
     1     1     3    1
     2     1     5    1
     3     2     4    1
     4     2    28    1
     5     3     4    1
     6     3     8    1
     7     3     9    1
     8     4     6    1
     9     4    13    1
    10     5     7    1
    11     5    10    1
    12     5    11    1
    13     6     7    1
    14     6    14    1
    15     6    15    1
    16     7    16    1
    17     7    17    1
    18     8    18    1
    19     8    19    1
    20     8    20    1
    21     9    21    1
    22     9    22    1
    23     9    23    1
    24    10    24    1
    25    10    25    1
    26    10    26    1
    27    11    12    2
    28    11    27    1
    29    12    29    1
    30    12    30    1
