@<TRIPOS>MOLECULE
IMPHY005492
 25 27 0 0 0
SMALL
GASTEIGER

@<TRIPOS>ATOM
      1 N           4.5274    1.1203    0.0000 N.ar    1  UNL1       -0.3541
      2 C           5.0274   -0.4185    0.0000 C.ar    1  UNL1        0.0076
      3 C           4.0274   -0.4185    0.0000 C.ar    1  UNL1        0.0074
      4 C           5.3364    0.5325    0.0000 C.ar    1  UNL1        0.0475
      5 C           3.7183    0.5325    0.0000 C.ar    1  UNL1        0.0475
      6 C           5.7123   -1.2033    0.0000 C.ar    1  UNL1       -0.0491
      7 C           6.3518    0.7648    0.0000 C.ar    1  UNL1       -0.0375
      8 C           6.7328   -0.9946    0.0000 C.ar    1  UNL1       -0.0497
      9 C           3.3424   -1.2033    0.0000 C.ar    1  UNL1       -0.0520
     10 C           2.7029    0.7648    0.0000 C.ar    1  UNL1       -0.0378
     11 C           7.0547   -0.0039    0.0000 C.ar    1  UNL1       -0.0569
     12 C           2.3219   -0.9946    0.0000 C.ar    1  UNL1       -0.0611
     13 C           2.0000   -0.0039    0.0000 C.ar    1  UNL1       -0.0598
     14 C           7.3991   -1.7403    0.0000 C.3     1  UNL1       -0.0397
     15 H           4.5274    1.7403    0.0000 H       1  UNL1        0.1659
     16 H           5.5139   -1.7907    0.0000 H       1  UNL1        0.0627
     17 H           6.5365    1.3566    0.0000 H       1  UNL1        0.0638
     18 H           3.5408   -1.7907    0.0000 H       1  UNL1        0.0624
     19 H           2.5182    1.3566    0.0000 H       1  UNL1        0.0638
     20 H           7.6607    0.1273    0.0000 H       1  UNL1        0.0621
     21 H           1.9088   -1.4569    0.0000 H       1  UNL1        0.0618
     22 H           1.3940    0.1273    0.0000 H       1  UNL1        0.0618
     23 H           6.9368   -2.1534    0.0000 H       1  UNL1        0.0278
     24 H           7.8122   -2.2026    0.0000 H       1  UNL1        0.0278
     25 H           7.8614   -1.3272    0.0000 H       1  UNL1        0.0278
@<TRIPOS>BOND
     1     1     4   ar
     2     1     5   ar
     3     1    15    1
     4     2     3   ar
     5     2     4   ar
     6     2     6   ar
     7     3     5   ar
     8     3     9   ar
     9     4     7   ar
    10     5    10   ar
    11     6     8   ar
    12     6    16    1
    13     7    11   ar
    14     7    17    1
    15     8    11   ar
    16     8    14    1
    17     9    12   ar
    18     9    18    1
    19    10    13   ar
    20    10    19    1
    21    11    20    1
    22    12    13   ar
    23    12    21    1
    24    13    22    1
    25    14    23    1
    26    14    24    1
    27    14    25    1
