@<TRIPOS>MOLECULE
IMPHY000908
 32 34 0 0 0
SMALL
GASTEIGER

@<TRIPOS>ATOM
      1 O           6.0682   -0.4400    0.0000 O.3     1  UNL1       -0.4804
      2 O           7.8003    1.5600    0.0000 O.3     1  UNL1       -0.3798
      3 O           6.0682    2.5600    0.0000 O.2     1  UNL1       -0.2890
      4 O           2.5381   -0.4642    0.0000 O.3     1  UNL1       -0.5066
      5 O          10.3984   -1.9400    0.0000 O.3     1  UNL1       -0.5068
      6 C           6.9343    0.0600    0.0000 C.3     1  UNL1        0.1581
      7 C           6.9343    1.0600    0.0000 C.3     1  UNL1        0.1583
      8 C           7.8003   -0.4400    0.0000 C.ar    1  UNL1       -0.0042
      9 C           6.0682    1.5600    0.0000 C.2     1  UNL1        0.1988
     10 C           5.2022    1.0600    0.0000 C.ar    1  UNL1        0.0620
     11 C           5.2022    0.0600    0.0000 C.ar    1  UNL1        0.1355
     12 C           7.8003   -1.4400    0.0000 C.ar    1  UNL1       -0.0515
     13 C           8.6663    0.0600    0.0000 C.ar    1  UNL1       -0.0515
     14 C           4.3083    1.5947    0.0000 C.ar    1  UNL1       -0.0442
     15 C           4.3083   -0.4747    0.0000 C.ar    1  UNL1        0.0223
     16 C           3.4022    0.0392    0.0000 C.ar    1  UNL1        0.1204
     17 C           3.4022    1.0808    0.0000 C.ar    1  UNL1       -0.0193
     18 C           8.6663   -1.9400    0.0000 C.ar    1  UNL1       -0.0198
     19 C           9.5323   -0.4400    0.0000 C.ar    1  UNL1       -0.0198
     20 C           9.5323   -1.4400    0.0000 C.ar    1  UNL1        0.1169
     21 H           6.9343   -0.5600    0.0000 H       1  UNL1        0.0815
     22 H           6.9343    1.6800    0.0000 H       1  UNL1        0.0718
     23 H           7.2634   -1.7500    0.0000 H       1  UNL1        0.0623
     24 H           8.6663    0.6800    0.0000 H       1  UNL1        0.0623
     25 H           4.3154    2.2146    0.0000 H       1  UNL1        0.0627
     26 H           4.3154   -1.0946    0.0000 H       1  UNL1        0.0691
     27 H           7.8003    2.1800    0.0000 H       1  UNL1        0.2105
     28 H           2.8665    1.3929    0.0000 H       1  UNL1        0.0654
     29 H           8.6663   -2.5600    0.0000 H       1  UNL1        0.0654
     30 H          10.0693   -0.1300    0.0000 H       1  UNL1        0.0654
     31 H           2.0000   -0.1562    0.0000 H       1  UNL1        0.2921
     32 H          10.3984   -2.5600    0.0000 H       1  UNL1        0.2921
@<TRIPOS>BOND
     1     1     6    1
     2     1    11    1
     3     7     2    1
     4     2    27    1
     5     3     9    2
     6     4    16    1
     7     4    31    1
     8     5    20    1
     9     5    32    1
    10     6     7    1
    11     6     8    1
    12     6    21    1
    13     7     9    1
    14     7    22    1
    15     8    12   ar
    16     8    13   ar
    17     9    10    1
    18    10    11   ar
    19    10    14   ar
    20    11    15   ar
    21    12    18   ar
    22    12    23    1
    23    13    19   ar
    24    13    24    1
    25    14    17   ar
    26    14    25    1
    27    15    16   ar
    28    15    26    1
    29    16    17   ar
    30    17    28    1
    31    18    20   ar
    32    18    29    1
    33    19    20   ar
    34    19    30    1
