@<TRIPOS>MOLECULE
IMPHY003054
 20 18 0 0 0
SMALL
GASTEIGER

@<TRIPOS>ATOM
      1 K           2.0000   -0.6550    0.0000 K       1  UNL1        0.0000
      2 O           4.0981    0.7110    0.0000 O.3     2  UNL2        0.0000
      3 O           5.4641    1.3450    0.0000 O.3     2  UNL2        0.0000
      4 O           7.1962    0.3450    0.0000 O.3     2  UNL2        0.0000
      5 O           2.8660   -0.1550    0.0000 O.co2   2  UNL2       -0.5000
      6 O           3.7320   -1.6550    0.0000 O.co2   2  UNL2       -0.5000
      7 C           4.5981   -0.1550    0.0000 C.3     2  UNL2        0.0000
      8 C           5.4641    0.3450    0.0000 C.3     2  UNL2        0.0000
      9 C           5.0981   -1.0210    0.0000 C.3     2  UNL2        0.0000
     10 C           6.3301   -0.1550    0.0000 C.3     2  UNL2        0.0000
     11 C           3.7320   -0.6550    0.0000 C.2     2  UNL2        0.0000
     12 H           6.0010    0.6550    0.0000 H       2  UNL2        0.0000
     13 H           4.5611   -1.3310    0.0000 H       2  UNL2        0.0000
     14 H           5.4081   -1.5580    0.0000 H       2  UNL2        0.0000
     15 H           5.6350   -0.7110    0.0000 H       2  UNL2        0.0000
     16 H           5.9316   -0.6299    0.0000 H       2  UNL2        0.0000
     17 H           6.7287   -0.6299    0.0000 H       2  UNL2        0.0000
     18 H           4.4081    1.2480    0.0000 H       2  UNL2        0.0000
     19 H           6.0010    1.6550    0.0000 H       2  UNL2        0.0000
     20 H           7.7331    0.0350    0.0000 H       2  UNL2        0.0000
@<TRIPOS>UNITY_ATOM_ATTR
1 1
charge 1
5 1
charge -1
@<TRIPOS>BOND
     1     7     2    1
     2     2    18    1
     3     8     3    1
     4     3    19    1
     5     4    10    1
     6     4    20    1
     7     5    11   ar
     8     6    11   ar
     9     7     8    1
    10     7     9    1
    11     7    11    1
    12     8    10    1
    13     8    12    1
    14     9    13    1
    15     9    14    1
    16     9    15    1
    17    10    16    1
    18    10    17    1
