@<TRIPOS>MOLECULE
IMPHY004947
 84 87 0 0 0
SMALL
GASTEIGER

@<TRIPOS>ATOM
      1 O           6.3301   -2.7500    0.0000 O.3     1  UNL1       -0.3389
      2 O           6.3301    0.2500    0.0000 O.3     1  UNL1       -0.3394
      3 O           4.5981   -2.7500    0.0000 O.3     1  UNL1       -0.3431
      4 O           8.0622   -1.7500    0.0000 O.3     1  UNL1       -0.4528
      5 O           4.5981    0.2500    0.0000 O.3     1  UNL1       -0.3458
      6 O           4.5981   -1.7500    0.0000 O.3     1  UNL1       -0.3841
      7 O           6.3301   -4.7500    0.0000 O.3     1  UNL1       -0.3841
      8 O           4.5981   -5.7500    0.0000 O.3     1  UNL1       -0.3864
      9 O           2.8660   -4.7500    0.0000 O.3     1  UNL1       -0.3866
     10 O           8.0622    1.2500    0.0000 O.3     1  UNL1       -0.3923
     11 O           2.8660    1.2500    0.0000 O.3     1  UNL1       -0.3729
     12 O           8.9282   -0.2500    0.0000 O.2     1  UNL1       -0.2456
     13 O           5.4641    4.7500    0.0000 O.3     1  UNL1       -0.5033
     14 O           3.7320    5.7500    0.0000 O.3     1  UNL1       -0.5033
     15 O          12.3923   -4.2500    0.0000 O.3     1  UNL1       -0.5033
     16 O          14.1244   -3.2500    0.0000 O.3     1  UNL1       -0.5033
     17 C           6.3301   -1.7500    0.0000 C.3     1  UNL1        0.1316
     18 C           7.1962   -1.2500    0.0000 C.3     1  UNL1        0.1602
     19 C           5.4641   -1.2500    0.0000 C.3     1  UNL1        0.1355
     20 C           7.1962   -0.2500    0.0000 C.3     1  UNL1        0.1240
     21 C           5.4641   -3.2500    0.0000 C.3     1  UNL1        0.1884
     22 C           5.4641   -0.2500    0.0000 C.3     1  UNL1        0.1881
     23 C           5.4641   -4.2500    0.0000 C.3     1  UNL1        0.1341
     24 C           4.5981   -4.7500    0.0000 C.3     1  UNL1        0.1140
     25 C           3.7320   -4.2500    0.0000 C.3     1  UNL1        0.1095
     26 C           3.7320   -3.2500    0.0000 C.3     1  UNL1        0.0873
     27 C           8.0622    0.2500    0.0000 C.3     1  UNL1        0.0741
     28 C           2.8660   -2.7500    0.0000 C.3     1  UNL1       -0.0361
     29 C           4.5981    1.2500    0.0000 C.3     1  UNL1        0.0811
     30 C           8.9282   -1.2500    0.0000 C.2     1  UNL1        0.3324
     31 C           3.7320    1.7500    0.0000 C.3     1  UNL1        0.1067
     32 C           3.7320    2.7500    0.0000 C.ar    1  UNL1       -0.0130
     33 C           9.7942   -1.7500    0.0000 C.2     1  UNL1        0.0231
     34 C           4.5981    3.2500    0.0000 C.ar    1  UNL1       -0.0108
     35 C           2.8660    3.2500    0.0000 C.ar    1  UNL1       -0.0524
     36 C          10.6603   -1.2500    0.0000 C.2     1  UNL1       -0.0477
     37 C           2.0000    1.7500    0.0000 C.3     1  UNL1        0.0373
     38 C           4.5981    4.2500    0.0000 C.ar    1  UNL1        0.1586
     39 C           2.8660    4.2500    0.0000 C.ar    1  UNL1       -0.0162
     40 C           3.7320    4.7500    0.0000 C.ar    1  UNL1        0.1582
     41 C          11.5263   -1.7500    0.0000 C.ar    1  UNL1       -0.0211
     42 C          11.5263   -2.7500    0.0000 C.ar    1  UNL1       -0.0094
     43 C          12.3923   -1.2500    0.0000 C.ar    1  UNL1       -0.0509
     44 C          12.3923   -3.2500    0.0000 C.ar    1  UNL1        0.1588
     45 C          13.2583   -1.7500    0.0000 C.ar    1  UNL1       -0.0160
     46 C          13.2583   -2.7500    0.0000 C.ar    1  UNL1        0.1582
     47 H           6.8671   -2.0600    0.0000 H       1  UNL1        0.0663
     48 H           7.7331   -0.9400    0.0000 H       1  UNL1        0.0788
     49 H           5.4641   -1.8700    0.0000 H       1  UNL1        0.0671
     50 H           7.1962    0.3700    0.0000 H       1  UNL1        0.0658
     51 H           5.4641   -2.6300    0.0000 H       1  UNL1        0.0938
     52 H           5.4641    0.3700    0.0000 H       1  UNL1        0.0937
     53 H           5.4641   -4.8700    0.0000 H       1  UNL1        0.0671
     54 H           4.0611   -5.0600    0.0000 H       1  UNL1        0.0648
     55 H           3.1951   -3.9400    0.0000 H       1  UNL1        0.0646
     56 H           3.7320   -2.6300    0.0000 H       1  UNL1        0.0621
     57 H           8.2742   -0.3326    0.0000 H       1  UNL1        0.0584
     58 H           8.6728    0.3577    0.0000 H       1  UNL1        0.0584
     59 H           3.1760   -2.2131    0.0000 H       1  UNL1        0.0255
     60 H           2.3291   -2.4400    0.0000 H       1  UNL1        0.0255
     61 H           2.5560   -3.2869    0.0000 H       1  UNL1        0.0255
     62 H           4.0611   -1.4400    0.0000 H       1  UNL1        0.2101
     63 H           6.3301   -5.3700    0.0000 H       1  UNL1        0.2101
     64 H           4.0611   -6.0600    0.0000 H       1  UNL1        0.2100
     65 H           5.2087    1.1423    0.0000 H       1  UNL1        0.0590
     66 H           4.8101    1.8326    0.0000 H       1  UNL1        0.0590
     67 H           2.3291   -4.4400    0.0000 H       1  UNL1        0.2100
     68 H           3.7320    0.9000    0.0000 H       1  UNL1        0.0669
     69 H           8.5991    1.5600    0.0000 H       1  UNL1        0.2095
     70 H           9.7942   -2.3700    0.0000 H       1  UNL1        0.0689
     71 H           5.1350    2.9400    0.0000 H       1  UNL1        0.0659
     72 H           2.3291    2.9400    0.0000 H       1  UNL1        0.0622
     73 H          10.6603   -0.6300    0.0000 H       1  UNL1        0.0626
     74 H           2.3100    2.2869    0.0000 H       1  UNL1        0.0524
     75 H           1.4631    2.0600    0.0000 H       1  UNL1        0.0524
     76 H           1.6900    1.2131    0.0000 H       1  UNL1        0.0524
     77 H           2.3291    4.5600    0.0000 H       1  UNL1        0.0655
     78 H          10.9893   -3.0600    0.0000 H       1  UNL1        0.0661
     79 H          12.3923   -0.6300    0.0000 H       1  UNL1        0.0625
     80 H           5.4641    5.3700    0.0000 H       1  UNL1        0.2923
     81 H           3.1951    6.0600    0.0000 H       1  UNL1        0.2923
     82 H          13.7953   -1.4400    0.0000 H       1  UNL1        0.0655
     83 H          12.9292   -4.5600    0.0000 H       1  UNL1        0.2923
     84 H          14.6613   -2.9400    0.0000 H       1  UNL1        0.2923
@<TRIPOS>BOND
     1    17     1    1
     2    21     1    1
     3     2    20    1
     4     2    22    1
     5     3    21    1
     6     3    26    1
     7    18     4    1
     8     4    30    1
     9    22     5    1
    10     5    29    1
    11    19     6    1
    12     6    62    1
    13    23     7    1
    14     7    63    1
    15    24     8    1
    16     8    64    1
    17    25     9    1
    18     9    67    1
    19    10    27    1
    20    10    69    1
    21    11    31    1
    22    11    37    1
    23    12    30    2
    24    13    38    1
    25    13    80    1
    26    14    40    1
    27    14    81    1
    28    15    44    1
    29    15    83    1
    30    16    46    1
    31    16    84    1
    32    17    18    1
    33    17    19    1
    34    17    47    1
    35    18    20    1
    36    18    48    1
    37    19    22    1
    38    19    49    1
    39    20    27    1
    40    20    50    1
    41    21    23    1
    42    21    51    1
    43    22    52    1
    44    23    24    1
    45    23    53    1
    46    24    25    1
    47    24    54    1
    48    25    26    1
    49    25    55    1
    50    26    28    1
    51    26    56    1
    52    27    57    1
    53    27    58    1
    54    28    59    1
    55    28    60    1
    56    28    61    1
    57    29    31    1
    58    29    65    1
    59    29    66    1
    60    30    33    1
    61    31    32    1
    62    31    68    1
    63    32    34   ar
    64    32    35   ar
    65    33    36    2
    66    33    70    1
    67    34    38   ar
    68    34    71    1
    69    35    39   ar
    70    35    72    1
    71    36    41    1
    72    36    73    1
    73    37    74    1
    74    37    75    1
    75    37    76    1
    76    38    40   ar
    77    39    40   ar
    78    39    77    1
    79    41    42   ar
    80    41    43   ar
    81    42    44   ar
    82    42    78    1
    83    43    45   ar
    84    43    79    1
    85    44    46   ar
    86    45    46   ar
    87    45    82    1
