@<TRIPOS>MOLECULE
IMPHY014827
 122 127 0 0 0
SMALL
GASTEIGER

@<TRIPOS>ATOM
      1 O           7.7331   -2.8649    0.0000 O.3     1  UNL1       -0.3449
      2 O           6.0260    0.2971    0.0000 O.3     1  UNL1       -0.3944
      3 O           9.4528    5.2794    0.0000 O.2     1  UNL1       -0.2970
      4 O           8.0388    5.7170    0.0000 O.3     1  UNL1       -0.3881
      5 O           6.0010   -2.8649    0.0000 O.3     1  UNL1       -0.3405
      6 O           7.7331   -4.8649    0.0000 O.3     1  UNL1       -0.3841
      7 O           6.0010   -5.8649    0.0000 O.3     1  UNL1       -0.3864
      8 O           4.2690   -4.8649    0.0000 O.3     1  UNL1       -0.3402
      9 O           4.2690   -1.8649    0.0000 O.3     1  UNL1       -0.3924
     10 O           5.1350   -6.3649    0.0000 O.3     1  UNL1       -0.3461
     11 O           2.5369   -5.8649    0.0000 O.3     1  UNL1       -0.3841
     12 O           2.5369   -7.8649    0.0000 O.3     1  UNL1       -0.3864
     13 O           4.2690   -8.8649    0.0000 O.3     1  UNL1       -0.3869
     14 C           8.6342    1.8353    0.0000 C.3     1  UNL1       -0.0226
     15 C           7.7701    1.3320    0.0000 C.3     1  UNL1       -0.0271
     16 C           8.6303    2.8353    0.0000 C.3     1  UNL1       -0.0162
     17 C           7.7580    0.2904    0.0000 C.3     1  UNL1        0.0007
     18 C           8.6581   -0.2339    0.0000 C.3     1  UNL1       -0.0255
     19 C           7.7624    3.3320    0.0000 C.3     1  UNL1       -0.0226
     20 C           9.5461    1.3320    0.0000 C.3     1  UNL1       -0.0465
     21 C           6.9021    1.8286    0.0000 C.3     1  UNL1       -0.0488
     22 C           9.5581    0.2904    0.0000 C.3     1  UNL1       -0.0485
     23 C           6.8983    2.8286    0.0000 C.3     1  UNL1       -0.0487
     24 C           8.6706   -1.3188    0.0000 C.3     1  UNL1       -0.0051
     25 C           7.9678    4.3046    0.0000 C.3     1  UNL1        0.0493
     26 C           9.3647    3.5052    0.0000 C.3     1  UNL1        0.0124
     27 C           6.8081   -0.2339    0.0000 C.3     1  UNL1       -0.0424
     28 C           9.6183    2.0128    0.0000 C.3     1  UNL1       -0.0588
     29 C           6.8939    0.7938    0.0000 C.3     1  UNL1        0.0504
     30 C           9.6158    2.6655    0.0000 C.3     1  UNL1       -0.0584
     31 C           7.7331   -1.8649    0.0000 C.3     1  UNL1        0.0672
     32 C           6.7956   -1.3188    0.0000 C.3     1  UNL1       -0.0254
     33 C           8.9561    4.4114    0.0000 C.2     1  UNL1        0.1399
     34 C           7.2971    5.0463    0.0000 C.3     1  UNL1        0.0733
     35 C           9.6706   -1.3111    0.0000 C.3     1  UNL1       -0.0572
     36 C           9.1773   -2.1809    0.0000 C.3     1  UNL1       -0.0572
     37 C           6.6264    5.7880    0.0000 C.3     1  UNL1       -0.0201
     38 C           6.5554    4.3756    0.0000 C.3     1  UNL1       -0.0354
     39 C           6.8671   -3.3649    0.0000 C.3     1  UNL1        0.1882
     40 C           6.9334    6.7397    0.0000 C.3     1  UNL1       -0.0319
     41 C           6.8671   -4.3649    0.0000 C.3     1  UNL1        0.1341
     42 C           6.2627    7.4815    0.0000 C.2     1  UNL1       -0.0852
     43 C           6.0010   -4.8649    0.0000 C.3     1  UNL1        0.1144
     44 C           5.1350   -3.3649    0.0000 C.3     1  UNL1        0.1134
     45 C           5.1350   -4.3649    0.0000 C.3     1  UNL1        0.1184
     46 C           6.5697    8.4332    0.0000 C.2     1  UNL1       -0.0796
     47 C           4.2690   -2.8649    0.0000 C.3     1  UNL1        0.0730
     48 C           5.8990    9.1749    0.0000 C.3     1  UNL1       -0.0440
     49 C           7.5474    8.6432    0.0000 C.3     1  UNL1       -0.0440
     50 C           4.2690   -5.8649    0.0000 C.3     1  UNL1        0.1880
     51 C           3.4030   -6.3649    0.0000 C.3     1  UNL1        0.1341
     52 C           3.4030   -7.3649    0.0000 C.3     1  UNL1        0.1137
     53 C           5.1350   -7.3649    0.0000 C.3     1  UNL1        0.0792
     54 C           4.2690   -7.8649    0.0000 C.3     1  UNL1        0.1069
     55 H           8.5045    0.9042    0.0000 H       1  UNL1        0.0312
     56 H           9.3974   -0.6532    0.0000 H       1  UNL1        0.0313
     57 H           7.0734    3.8298    0.0000 H       1  UNL1        0.0314
     58 H          10.1581    1.2330    0.0000 H       1  UNL1        0.0271
     59 H           9.7484    1.9181    0.0000 H       1  UNL1        0.0271
     60 H           6.2911    1.9340    0.0000 H       1  UNL1        0.0268
     61 H           6.6923    1.2452    0.0000 H       1  UNL1        0.0268
     62 H           9.7739   -0.2908    0.0000 H       1  UNL1        0.0268
     63 H          10.1677    0.4036    0.0000 H       1  UNL1        0.0268
     64 H           6.6840    3.4104    0.0000 H       1  UNL1        0.0268
     65 H           6.2881    2.7186    0.0000 H       1  UNL1        0.0268
     66 H           8.2704    5.0989    0.0000 H       1  UNL1        0.0408
     67 H           9.7321    3.0058    0.0000 H       1  UNL1        0.0347
     68 H           9.9000    3.8181    0.0000 H       1  UNL1        0.0347
     69 H           6.6058    0.3522    0.0000 H       1  UNL1        0.0272
     70 H           6.1961   -0.3329    0.0000 H       1  UNL1        0.0272
     71 H           9.7283    1.4026    0.0000 H       1  UNL1        0.0235
     72 H          10.2284    2.1228    0.0000 H       1  UNL1        0.0235
     73 H           9.5083    2.6229    0.0000 H       1  UNL1        0.0235
     74 H           7.2943    1.2672    0.0000 H       1  UNL1        0.0563
     75 H           6.4972    1.2702    0.0000 H       1  UNL1        0.0563
     76 H           9.5105    2.0545    0.0000 H       1  UNL1        0.0235
     77 H          10.2268    2.5602    0.0000 H       1  UNL1        0.0235
     78 H           9.7211    3.2765    0.0000 H       1  UNL1        0.0235
     79 H           8.2706   -2.1739    0.0000 H       1  UNL1        0.0602
     80 H           6.1860   -1.2056    0.0000 H       1  UNL1        0.0290
     81 H           6.5798   -1.9000    0.0000 H       1  UNL1        0.0290
     82 H           9.6754   -1.9311    0.0000 H       1  UNL1        0.0236
     83 H          10.2906   -1.3063    0.0000 H       1  UNL1        0.0236
     84 H           9.6658   -0.6911    0.0000 H       1  UNL1        0.0236
     85 H           8.6428   -2.4951    0.0000 H       1  UNL1        0.0236
     86 H           9.4914   -2.7155    0.0000 H       1  UNL1        0.0236
     87 H           9.7118   -1.8668    0.0000 H       1  UNL1        0.0236
     88 H           6.0783    6.0779    0.0000 H       1  UNL1        0.0296
     89 H           6.2457    5.2987    0.0000 H       1  UNL1        0.0296
     90 H           6.1395    4.8355    0.0000 H       1  UNL1        0.0257
     91 H           6.0955    3.9598    0.0000 H       1  UNL1        0.0257
     92 H           6.9712    3.9157    0.0000 H       1  UNL1        0.0257
     93 H           5.4902    0.6092    0.0000 H       1  UNL1        0.2094
     94 H           7.9086    6.3232    0.0000 H       1  UNL1        0.2102
     95 H           7.4040   -3.6749    0.0000 H       1  UNL1        0.0937
     96 H           7.4814    6.4498    0.0000 H       1  UNL1        0.0308
     97 H           7.3141    7.2291    0.0000 H       1  UNL1        0.0308
     98 H           6.8671   -4.9849    0.0000 H       1  UNL1        0.0671
     99 H           5.6565    7.3513    0.0000 H       1  UNL1        0.0571
    100 H           5.4641   -5.1749    0.0000 H       1  UNL1        0.0648
    101 H           5.1350   -2.7449    0.0000 H       1  UNL1        0.0647
    102 H           5.1350   -4.9849    0.0000 H       1  UNL1        0.0651
    103 H           8.2700   -4.5549    0.0000 H       1  UNL1        0.2101
    104 H           3.6584   -2.7572    0.0000 H       1  UNL1        0.0584
    105 H           4.0569   -3.4475    0.0000 H       1  UNL1        0.0584
    106 H           6.5380   -6.1749    0.0000 H       1  UNL1        0.2100
    107 H           6.3588    9.5907    0.0000 H       1  UNL1        0.0274
    108 H           5.4831    9.6348    0.0000 H       1  UNL1        0.0274
    109 H           5.4391    8.7591    0.0000 H       1  UNL1        0.0274
    110 H           7.6776    8.0370    0.0000 H       1  UNL1        0.0274
    111 H           8.1535    8.7734    0.0000 H       1  UNL1        0.0274
    112 H           7.4172    9.2493    0.0000 H       1  UNL1        0.0274
    113 H           3.7320   -5.5549    0.0000 H       1  UNL1        0.0937
    114 H           3.7320   -1.5549    0.0000 H       1  UNL1        0.2095
    115 H           3.4030   -5.7449    0.0000 H       1  UNL1        0.0671
    116 H           3.4030   -7.9849    0.0000 H       1  UNL1        0.0647
    117 H           5.3471   -7.9475    0.0000 H       1  UNL1        0.0587
    118 H           5.7456   -7.2572    0.0000 H       1  UNL1        0.0587
    119 H           4.8059   -8.1749    0.0000 H       1  UNL1        0.0643
    120 H           2.0000   -6.1749    0.0000 H       1  UNL1        0.2101
    121 H           2.5369   -8.4849    0.0000 H       1  UNL1        0.2100
    122 H           4.8059   -9.1749    0.0000 H       1  UNL1        0.2100
@<TRIPOS>BOND
     1     1    31    1
     2    39     1    1
     3     2    29    1
     4     2    93    1
     5     3    33    2
     6    34     4    1
     7     4    94    1
     8     5    39    1
     9     5    44    1
    10    41     6    1
    11     6   103    1
    12    43     7    1
    13     7   106    1
    14    45     8    1
    15    50     8    1
    16     9    47    1
    17     9   114    1
    18    10    50    1
    19    10    53    1
    20    51    11    1
    21    11   120    1
    22    52    12    1
    23    12   121    1
    24    54    13    1
    25    13   122    1
    26    14    15    1
    27    14    16    1
    28    14    20    1
    29    14    28    1
    30    15    17    1
    31    15    21    1
    32    15    55    1
    33    16    19    1
    34    16    26    1
    35    16    30    1
    36    17    18    1
    37    17    27    1
    38    17    29    1
    39    18    22    1
    40    18    24    1
    41    18    56    1
    42    19    23    1
    43    19    25    1
    44    19    57    1
    45    20    22    1
    46    20    58    1
    47    20    59    1
    48    21    23    1
    49    21    60    1
    50    21    61    1
    51    22    62    1
    52    22    63    1
    53    23    64    1
    54    23    65    1
    55    24    31    1
    56    24    35    1
    57    24    36    1
    58    25    33    1
    59    25    34    1
    60    25    66    1
    61    26    33    1
    62    26    67    1
    63    26    68    1
    64    27    32    1
    65    27    69    1
    66    27    70    1
    67    28    71    1
    68    28    72    1
    69    28    73    1
    70    29    74    1
    71    29    75    1
    72    30    76    1
    73    30    77    1
    74    30    78    1
    75    31    32    1
    76    31    79    1
    77    32    80    1
    78    32    81    1
    79    34    37    1
    80    34    38    1
    81    35    82    1
    82    35    83    1
    83    35    84    1
    84    36    85    1
    85    36    86    1
    86    36    87    1
    87    37    40    1
    88    37    88    1
    89    37    89    1
    90    38    90    1
    91    38    91    1
    92    38    92    1
    93    39    41    1
    94    39    95    1
    95    40    42    1
    96    40    96    1
    97    40    97    1
    98    41    43    1
    99    41    98    1
   100    42    46    2
   101    42    99    1
   102    43    45    1
   103    43   100    1
   104    44    45    1
   105    44    47    1
   106    44   101    1
   107    45   102    1
   108    46    48    1
   109    46    49    1
   110    47   104    1
   111    47   105    1
   112    48   107    1
   113    48   108    1
   114    48   109    1
   115    49   110    1
   116    49   111    1
   117    49   112    1
   118    50    51    1
   119    50   113    1
   120    51    52    1
   121    51   115    1
   122    52    54    1
   123    52   116    1
   124    53    54    1
   125    53   117    1
   126    53   118    1
   127    54   119    1
