@<TRIPOS>MOLECULE
IMPHY002624
 23 24 0 0 0
SMALL
GASTEIGER

@<TRIPOS>ATOM
      1 S           4.5032    0.7802    0.0000 S.2     1  UNL1       -0.0851
      2 S           6.5723    0.1080    0.0000 S.2     1  UNL1       -0.0794
      3 O           2.0000    1.7282    0.0000 O.2     1  UNL1       -0.2952
      4 C           5.3122    1.3680    0.0000 C.ar    1  UNL1        0.0266
      5 C           6.2633    1.0590    0.0000 C.ar    1  UNL1        0.0271
      6 C           5.0032    2.3191    0.0000 C.ar    1  UNL1       -0.0458
      7 C           7.0723    1.6468    0.0000 C.ar    1  UNL1       -0.0452
      8 C           3.6942    1.3680    0.0000 C.ar    1  UNL1        0.0519
      9 C           4.0032    2.3191    0.0000 C.ar    1  UNL1       -0.0438
     10 C           7.8813    1.0590    0.0000 C.ar    1  UNL1       -0.0386
     11 C           7.5723    0.1080    0.0000 C.ar    1  UNL1        0.0625
     12 C           2.7431    1.0590    0.0000 C.2     1  UNL1        0.1568
     13 C           8.1601   -0.7011    0.0000 C.1     1  UNL1       -0.0594
     14 C           8.7479   -1.5101    0.0000 C.1     1  UNL1       -0.0998
     15 C           9.3357   -2.3191    0.0000 C.3     1  UNL1       -0.0022
     16 H           5.3676    2.8207    0.0000 H       1  UNL1        0.0629
     17 H           7.0723    2.2668    0.0000 H       1  UNL1        0.0629
     18 H           3.6388    2.8207    0.0000 H       1  UNL1        0.0630
     19 H           8.4710    1.2506    0.0000 H       1  UNL1        0.0635
     20 H           2.6142    0.4526    0.0000 H       1  UNL1        0.1087
     21 H           8.8341   -2.6835    0.0000 H       1  UNL1        0.0362
     22 H           9.7001   -2.8207    0.0000 H       1  UNL1        0.0362
     23 H           9.8373   -1.9547    0.0000 H       1  UNL1        0.0362
@<TRIPOS>BOND
     1     1     4   ar
     2     1     8   ar
     3     2     5   ar
     4     2    11   ar
     5     3    12    2
     6     4     5    1
     7     4     6   ar
     8     5     7   ar
     9     6     9   ar
    10     6    16    1
    11     7    10   ar
    12     7    17    1
    13     8     9   ar
    14     8    12    1
    15     9    18    1
    16    10    11   ar
    17    10    19    1
    18    11    13    1
    19    12    20    1
    20    13    14    3
    21    14    15    1
    22    15    21    1
    23    15    22    1
    24    15    23    1
