@<TRIPOS>MOLECULE
IMPHY004375
 37 39 0 0 0
SMALL
GASTEIGER

@<TRIPOS>ATOM
      1 O           6.3580   -0.6193    0.0000 O.2     1  UNL1       -0.4505
      2 O           4.5981   -1.5846    0.0000 O.3     1  UNL1       -0.4885
      3 O           2.8660   -0.5846    0.0000 O.3     1  UNL1       -0.4912
      4 O           4.5981    2.4154    0.0000 O.3     1  UNL1       -0.5058
      5 O           6.3465    2.4500    0.0000 O.2     1  UNL1       -0.2869
      6 O           7.2564   -2.1054    0.0000 O.3     1  UNL1       -0.5061
      7 C           5.4641    0.9154    0.0000 C.ar    1  UNL1        0.1091
      8 C           5.4641   -0.0846    0.0000 C.ar    1  UNL1        0.1878
      9 C           4.5981   -0.5846    0.0000 C.ar    1  UNL1        0.2051
     10 C           7.2641   -0.1054    0.0000 C.ar    1  UNL1        0.1429
     11 C           4.5981    1.4154    0.0000 C.ar    1  UNL1        0.1349
     12 C           6.3580    1.4501    0.0000 C.ar    1  UNL1        0.1967
     13 C           3.7320   -0.0846    0.0000 C.ar    1  UNL1        0.1687
     14 C           7.2641    0.9362    0.0000 C.ar    1  UNL1        0.0289
     15 C           8.1282   -0.6088    0.0000 C.ar    1  UNL1        0.0588
     16 C           3.7320    0.9154    0.0000 C.ar    1  UNL1        0.0261
     17 C           8.1244   -1.6087    0.0000 C.ar    1  UNL1        0.1275
     18 C           8.9962   -0.1121    0.0000 C.ar    1  UNL1       -0.0476
     19 C           8.9884   -2.1121    0.0000 C.ar    1  UNL1       -0.0195
     20 C           9.8602   -0.6154    0.0000 C.ar    1  UNL1       -0.0609
     21 C           9.8564   -1.6154    0.0000 C.ar    1  UNL1       -0.0583
     22 C           3.7320   -2.0846    0.0000 C.3     1  UNL1        0.0791
     23 C           2.0000   -0.0846    0.0000 C.3     1  UNL1        0.0790
     24 H           7.7998    1.2483    0.0000 H       1  UNL1        0.0693
     25 H           3.1951    1.2254    0.0000 H       1  UNL1        0.0692
     26 H           8.9985    0.5079    0.0000 H       1  UNL1        0.0626
     27 H           8.9860   -2.7321    0.0000 H       1  UNL1        0.0654
     28 H          10.3984   -0.3075    0.0000 H       1  UNL1        0.0618
     29 H          10.3921   -1.9275    0.0000 H       1  UNL1        0.0619
     30 H           4.0611    2.7254    0.0000 H       1  UNL1        0.2922
     31 H           3.4220   -1.5477    0.0000 H       1  UNL1        0.0660
     32 H           3.1951   -2.3946    0.0000 H       1  UNL1        0.0660
     33 H           4.0420   -2.6215    0.0000 H       1  UNL1        0.0660
     34 H           2.3100    0.4523    0.0000 H       1  UNL1        0.0660
     35 H           1.4631    0.2254    0.0000 H       1  UNL1        0.0660
     36 H           1.6900   -0.6215    0.0000 H       1  UNL1        0.0660
     37 H           7.2540   -2.7254    0.0000 H       1  UNL1        0.2922
@<TRIPOS>BOND
     1     1     8   ar
     2     1    10   ar
     3     2     9    1
     4     2    22    1
     5     3    13    1
     6     3    23    1
     7     4    11    1
     8     4    30    1
     9     5    12    2
    10     6    17    1
    11     6    37    1
    12     7     8   ar
    13     7    11   ar
    14     7    12   ar
    15     8     9   ar
    16     9    13   ar
    17    10    14   ar
    18    10    15    1
    19    11    16   ar
    20    12    14   ar
    21    13    16   ar
    22    14    24    1
    23    15    17   ar
    24    15    18   ar
    25    16    25    1
    26    17    19   ar
    27    18    20   ar
    28    18    26    1
    29    19    21   ar
    30    19    27    1
    31    20    21   ar
    32    20    28    1
    33    21    29    1
    34    22    31    1
    35    22    32    1
    36    22    33    1
    37    23    34    1
    38    23    35    1
    39    23    36    1
