@<TRIPOS>MOLECULE
IMPHY004904
 41 42 0 0 0
SMALL
GASTEIGER

@<TRIPOS>ATOM
      1 O           2.8660   -1.4050    0.0000 O.3     1  UNL1       -0.4914
      2 O           7.1962    2.0950    0.0000 O.3     1  UNL1       -0.4574
      3 O           4.5981   -2.4050    0.0000 O.3     1  UNL1       -0.5033
      4 O           8.0622    0.5950    0.0000 O.2     1  UNL1       -0.2456
      5 C           4.5981    0.5950    0.0000 C.ar    1  UNL1       -0.0215
      6 C           3.7320    0.0950    0.0000 C.ar    1  UNL1       -0.0092
      7 C           3.7320   -0.9050    0.0000 C.ar    1  UNL1        0.1618
      8 C           5.4641    0.0950    0.0000 C.ar    1  UNL1       -0.0509
      9 C           4.5981   -1.4050    0.0000 C.ar    1  UNL1        0.1585
     10 C           4.5981    1.5950    0.0000 C.2     1  UNL1       -0.0552
     11 C           5.4641   -0.9050    0.0000 C.ar    1  UNL1       -0.0160
     12 C           5.4641    2.0950    0.0000 C.2     1  UNL1       -0.0465
     13 C           6.3301    1.5950    0.0000 C.3     1  UNL1        0.1113
     14 C           9.7942    0.5950    0.0000 C.ar    1  UNL1       -0.0248
     15 C           8.9282    0.0950    0.0000 C.ar    1  UNL1       -0.0546
     16 C          10.6603    0.0950    0.0000 C.ar    1  UNL1       -0.0546
     17 C           9.7942    1.5950    0.0000 C.2     1  UNL1       -0.0478
     18 C           8.9282   -0.9050    0.0000 C.ar    1  UNL1       -0.0612
     19 C          10.6603   -0.9050    0.0000 C.ar    1  UNL1       -0.0612
     20 C           8.9282    2.0950    0.0000 C.2     1  UNL1        0.0231
     21 C           9.7942   -1.4050    0.0000 C.ar    1  UNL1       -0.0617
     22 C           8.0622    1.5950    0.0000 C.2     1  UNL1        0.3322
     23 C           2.0000   -0.9050    0.0000 C.3     1  UNL1        0.0790
     24 H           3.1951    0.4050    0.0000 H       1  UNL1        0.0661
     25 H           6.0010    0.4050    0.0000 H       1  UNL1        0.0625
     26 H           4.0611    1.9050    0.0000 H       1  UNL1        0.0621
     27 H           6.0010   -1.2150    0.0000 H       1  UNL1        0.0655
     28 H           5.4641    2.7150    0.0000 H       1  UNL1        0.0606
     29 H           5.9316    1.1200    0.0000 H       1  UNL1        0.0743
     30 H           6.7287    1.1200    0.0000 H       1  UNL1        0.0743
     31 H           8.3913    0.4050    0.0000 H       1  UNL1        0.0623
     32 H          11.1972    0.4050    0.0000 H       1  UNL1        0.0623
     33 H          10.3312    1.9050    0.0000 H       1  UNL1        0.0626
     34 H           8.3913   -1.2150    0.0000 H       1  UNL1        0.0618
     35 H          11.1972   -1.2150    0.0000 H       1  UNL1        0.0618
     36 H           8.9282    2.7150    0.0000 H       1  UNL1        0.0689
     37 H           9.7942   -2.0250    0.0000 H       1  UNL1        0.0618
     38 H           5.1350   -2.7150    0.0000 H       1  UNL1        0.2923
     39 H           2.3100   -0.3681    0.0000 H       1  UNL1        0.0660
     40 H           1.4631   -0.5950    0.0000 H       1  UNL1        0.0660
     41 H           1.6900   -1.4419    0.0000 H       1  UNL1        0.0660
@<TRIPOS>BOND
     1     1     7    1
     2     1    23    1
     3     2    13    1
     4     2    22    1
     5     3     9    1
     6     3    38    1
     7     4    22    2
     8     5     6   ar
     9     5     8   ar
    10     5    10    1
    11     6     7   ar
    12     6    24    1
    13     7     9   ar
    14     8    11   ar
    15     8    25    1
    16     9    11   ar
    17    10    12    2
    18    10    26    1
    19    11    27    1
    20    12    13    1
    21    12    28    1
    22    13    29    1
    23    13    30    1
    24    14    15   ar
    25    14    16   ar
    26    14    17    1
    27    15    18   ar
    28    15    31    1
    29    16    19   ar
    30    16    32    1
    31    17    20    2
    32    17    33    1
    33    18    21   ar
    34    18    34    1
    35    19    21   ar
    36    19    35    1
    37    20    22    1
    38    20    36    1
    39    21    37    1
    40    23    39    1
    41    23    40    1
    42    23    41    1
