@<TRIPOS>MOLECULE
IMPHY012669
 45 48 0 0 0
SMALL
GASTEIGER

@<TRIPOS>ATOM
      1 O           5.5022    0.8284    0.0000 O.3     1  UNL1       -0.4823
      2 O           9.0382    0.8006    0.0000 O.3     1  UNL1       -0.4814
      3 O           7.2622   -2.2063    0.0000 O.3     1  UNL1       -0.4942
      4 O           5.5138   -2.2409    0.0000 O.2     1  UNL1       -0.2917
      5 C           4.5961    0.3145    0.0000 C.3     1  UNL1        0.1322
      6 C           9.0462    1.8422    0.0000 C.3     1  UNL1        0.1235
      7 C           6.3961    0.2937    0.0000 C.ar    1  UNL1        0.1460
      8 C           7.2622    0.7937    0.0000 C.ar    1  UNL1        0.0591
      9 C           4.5961   -0.7271    0.0000 C.3     1  UNL1        0.0520
     10 C           6.3961   -0.7063    0.0000 C.ar    1  UNL1        0.1015
     11 C           8.1282    0.2937    0.0000 C.ar    1  UNL1        0.1359
     12 C           5.5022   -1.2409    0.0000 C.2     1  UNL1        0.1740
     13 C           8.1441    2.3630    0.0000 C.2     1  UNL1       -0.0408
     14 C           7.2461    1.8352    0.0000 C.2     1  UNL1       -0.0478
     15 C           7.2622   -1.2063    0.0000 C.ar    1  UNL1        0.1376
     16 C           3.7320    0.8179    0.0000 C.ar    1  UNL1       -0.0069
     17 C           8.1282   -0.7063    0.0000 C.ar    1  UNL1        0.0233
     18 C           9.5496    2.7063    0.0000 C.3     1  UNL1       -0.0215
     19 C          10.0462    1.8383    0.0000 C.3     1  UNL1       -0.0215
     20 C           3.7359    1.8179    0.0000 C.ar    1  UNL1       -0.0551
     21 C           2.8641    0.3212    0.0000 C.ar    1  UNL1       -0.0551
     22 C           2.8718    2.3212    0.0000 C.ar    1  UNL1       -0.0614
     23 C           2.0000    0.8246    0.0000 C.ar    1  UNL1       -0.0614
     24 C           2.0038    1.8246    0.0000 C.ar    1  UNL1       -0.0617
     25 C           8.1282   -2.7063    0.0000 C.3     1  UNL1        0.0788
     26 H           4.5997    0.9345    0.0000 H       1  UNL1        0.0789
     27 H           3.9853   -0.6210    0.0000 H       1  UNL1        0.0385
     28 H           4.3871   -1.3108    0.0000 H       1  UNL1        0.0385
     29 H           8.1418    2.9830    0.0000 H       1  UNL1        0.0611
     30 H           6.7056    2.1390    0.0000 H       1  UNL1        0.0624
     31 H           8.6651   -1.0163    0.0000 H       1  UNL1        0.0691
     32 H          10.0853    2.3942    0.0000 H       1  UNL1        0.0271
     33 H           9.8616    3.2420    0.0000 H       1  UNL1        0.0271
     34 H           9.0138    3.0183    0.0000 H       1  UNL1        0.0271
     35 H          10.0438    1.2183    0.0000 H       1  UNL1        0.0271
     36 H          10.6662    1.8359    0.0000 H       1  UNL1        0.0271
     37 H          10.0486    2.4583    0.0000 H       1  UNL1        0.0271
     38 H           4.2740    2.1258    0.0000 H       1  UNL1        0.0621
     39 H           2.8617   -0.2988    0.0000 H       1  UNL1        0.0621
     40 H           2.8742    2.9412    0.0000 H       1  UNL1        0.0618
     41 H           1.4619    0.5166    0.0000 H       1  UNL1        0.0618
     42 H           1.4681    2.1366    0.0000 H       1  UNL1        0.0618
     43 H           7.8182   -3.2432    0.0000 H       1  UNL1        0.0660
     44 H           8.6651   -3.0163    0.0000 H       1  UNL1        0.0660
     45 H           8.4382   -2.1693    0.0000 H       1  UNL1        0.0660
@<TRIPOS>BOND
     1     1     5    1
     2     1     7    1
     3     2     6    1
     4     2    11    1
     5     3    15    1
     6     3    25    1
     7     4    12    2
     8     5     9    1
     9     5    16    1
    10     5    26    1
    11     6    13    1
    12     6    18    1
    13     6    19    1
    14     7     8   ar
    15     7    10   ar
    16     8    11   ar
    17     8    14    1
    18     9    12    1
    19     9    27    1
    20     9    28    1
    21    10    12    1
    22    10    15   ar
    23    11    17   ar
    24    13    14    2
    25    13    29    1
    26    14    30    1
    27    15    17   ar
    28    16    20   ar
    29    16    21   ar
    30    17    31    1
    31    18    32    1
    32    18    33    1
    33    18    34    1
    34    19    35    1
    35    19    36    1
    36    19    37    1
    37    20    22   ar
    38    20    38    1
    39    21    23   ar
    40    21    39    1
    41    22    24   ar
    42    22    40    1
    43    23    24   ar
    44    23    41    1
    45    24    42    1
    46    25    43    1
    47    25    44    1
    48    25    45    1
