@<TRIPOS>MOLECULE
IMPHY009600
 24 26 0 0 0
SMALL
GASTEIGER

@<TRIPOS>ATOM
      1 S           4.4026   -2.0336    0.0000 S.2     1  UNL1       -0.0976
      2 O           5.2619    0.5316    0.0000 O.3     1  UNL1       -0.4476
      3 O           2.8660    2.5316    0.0000 O.3     1  UNL1       -0.5059
      4 O           4.9889    2.2869    0.0000 O.2     1  UNL1       -0.2448
      5 C           4.6783   -0.2731    0.0000 C.3     1  UNL1        0.1603
      6 C           3.7320    0.0316    0.0000 C.ar    1  UNL1        0.0152
      7 C           3.7320    1.0316    0.0000 C.ar    1  UNL1        0.1073
      8 C           4.9889   -1.2236    0.0000 C.ar    1  UNL1        0.0345
      9 C           4.6783    1.3364    0.0000 C.2     1  UNL1        0.3440
     10 C           2.8660   -0.4684    0.0000 C.ar    1  UNL1       -0.0537
     11 C           2.8660    1.5316    0.0000 C.ar    1  UNL1        0.1312
     12 C           5.9405   -1.5310    0.0000 C.ar    1  UNL1       -0.0477
     13 C           2.0000    0.0316    0.0000 C.ar    1  UNL1       -0.0579
     14 C           2.0000    1.0316    0.0000 C.ar    1  UNL1       -0.0193
     15 C           5.9422   -2.5310    0.0000 C.ar    1  UNL1       -0.0543
     16 C           4.9917   -2.8416    0.0000 C.ar    1  UNL1       -0.0239
     17 H           5.2908   -0.3693    0.0000 H       1  UNL1        0.0843
     18 H           2.8660   -1.0884    0.0000 H       1  UNL1        0.0622
     19 H           6.4415   -1.1657    0.0000 H       1  UNL1        0.0627
     20 H           1.4631   -0.2784    0.0000 H       1  UNL1        0.0619
     21 H           1.4631    1.3416    0.0000 H       1  UNL1        0.0654
     22 H           6.4445   -2.8945    0.0000 H       1  UNL1        0.0623
     23 H           4.8012   -3.4316    0.0000 H       1  UNL1        0.0693
     24 H           2.3291    2.8416    0.0000 H       1  UNL1        0.2922
@<TRIPOS>BOND
     1     1     8   ar
     2     1    16   ar
     3     2     5    1
     4     2     9    1
     5     3    11    1
     6     3    24    1
     7     4     9    2
     8     5     6    1
     9     5     8    1
    10     5    17    1
    11     6     7   ar
    12     6    10   ar
    13     7     9    1
    14     7    11   ar
    15     8    12   ar
    16    10    13   ar
    17    10    18    1
    18    11    14   ar
    19    12    15   ar
    20    12    19    1
    21    13    14   ar
    22    13    20    1
    23    14    21    1
    24    15    16   ar
    25    15    22    1
    26    16    23    1
