@<TRIPOS>MOLECULE
IMPHY007985
 55 58 0 0 0
SMALL
GASTEIGER

@<TRIPOS>ATOM
      1 O           3.9061   -0.3017    0.0000 O.3     1  UNL1       -0.4811
      2 O           7.4260   -0.3017    0.0000 O.2     1  UNL1       -0.4616
      3 O           5.6660    2.7329    0.0000 O.3     1  UNL1       -0.5052
      4 O           3.9340   -1.2671    0.0000 O.3     1  UNL1       -0.3872
      5 O           7.4144    2.7675    0.0000 O.2     1  UNL1       -0.2863
      6 O          11.7884    3.2671    0.0000 O.3     1  UNL1       -0.5068
      7 C           3.0000    0.2121    0.0000 C.3     1  UNL1        0.1235
      8 C           5.6660   -0.2671    0.0000 C.ar    1  UNL1        0.0407
      9 C           4.8000    0.2329    0.0000 C.ar    1  UNL1        0.1391
     10 C           4.8000    1.2329    0.0000 C.ar    1  UNL1        0.0591
     11 C           5.6660   -1.2671    0.0000 C.3     1  UNL1        0.0093
     12 C           6.5320    0.2329    0.0000 C.ar    1  UNL1        0.1487
     13 C           6.5320    1.2329    0.0000 C.ar    1  UNL1        0.1069
     14 C           3.0000    1.2537    0.0000 C.2     1  UNL1       -0.0408
     15 C           5.6660    1.7329    0.0000 C.ar    1  UNL1        0.1418
     16 C           3.9061    1.7676    0.0000 C.2     1  UNL1       -0.0478
     17 C           4.8000   -1.7671    0.0000 C.3     1  UNL1        0.0799
     18 C           2.0000    0.2083    0.0000 C.3     1  UNL1       -0.0215
     19 C           2.5033   -0.6558    0.0000 C.3     1  UNL1       -0.0215
     20 C           7.4260    1.7676    0.0000 C.ar    1  UNL1        0.2037
     21 C           8.3321    1.2537    0.0000 C.ar    1  UNL1        0.0644
     22 C           4.8000   -2.7671    0.0000 C.2     1  UNL1       -0.0513
     23 C           8.3321    0.2121    0.0000 C.ar    1  UNL1        0.1039
     24 C           9.1962    1.7571    0.0000 C.ar    1  UNL1       -0.0110
     25 C           3.9340   -3.2671    0.0000 C.3     1  UNL1       -0.0416
     26 C           5.6660   -3.2671    0.0000 C.2     1  UNL1       -0.0973
     27 C          10.0641    1.2604    0.0000 C.ar    1  UNL1       -0.0504
     28 C           9.1923    2.7571    0.0000 C.ar    1  UNL1       -0.0504
     29 C          10.9282    1.7638    0.0000 C.ar    1  UNL1       -0.0196
     30 C          10.0564    3.2604    0.0000 C.ar    1  UNL1       -0.0196
     31 C          10.9243    2.7637    0.0000 C.ar    1  UNL1        0.1169
     32 H           5.8781   -1.8497    0.0000 H       1  UNL1        0.0344
     33 H           6.2766   -1.1594    0.0000 H       1  UNL1        0.0344
     34 H           2.4643    1.5658    0.0000 H       1  UNL1        0.0611
     35 H           3.9132    2.3875    0.0000 H       1  UNL1        0.0624
     36 H           4.8000   -1.1471    0.0000 H       1  UNL1        0.0643
     37 H           1.9976    0.8282    0.0000 H       1  UNL1        0.0271
     38 H           1.3800    0.2059    0.0000 H       1  UNL1        0.0271
     39 H           2.0024   -0.4117    0.0000 H       1  UNL1        0.0271
     40 H           1.9652   -0.3479    0.0000 H       1  UNL1        0.0271
     41 H           2.1954   -1.1940    0.0000 H       1  UNL1        0.0271
     42 H           3.0415   -0.9638    0.0000 H       1  UNL1        0.0271
     43 H           8.8678   -0.1000    0.0000 H       1  UNL1        0.1037
     44 H           5.1291    3.0429    0.0000 H       1  UNL1        0.2922
     45 H           3.3970   -1.5771    0.0000 H       1  UNL1        0.2102
     46 H           3.6240   -2.7301    0.0000 H       1  UNL1        0.0275
     47 H           3.3970   -3.5771    0.0000 H       1  UNL1        0.0275
     48 H           4.2440   -3.8040    0.0000 H       1  UNL1        0.0275
     49 H           5.6660   -3.8871    0.0000 H       1  UNL1        0.0535
     50 H           6.2030   -2.9571    0.0000 H       1  UNL1        0.0535
     51 H          10.0665    0.6404    0.0000 H       1  UNL1        0.0625
     52 H           8.6542    3.0650    0.0000 H       1  UNL1        0.0625
     53 H          11.4663    1.4558    0.0000 H       1  UNL1        0.0654
     54 H          10.0540    3.8804    0.0000 H       1  UNL1        0.0654
     55 H          12.3266    2.9592    0.0000 H       1  UNL1        0.2921
@<TRIPOS>BOND
     1     1     7    1
     2     1     9    1
     3     2    12   ar
     4     2    23   ar
     5     3    15    1
     6     3    44    1
     7     4    17    1
     8     4    45    1
     9     5    20    2
    10     6    31    1
    11     6    55    1
    12     7    14    1
    13     7    18    1
    14     7    19    1
    15     8     9   ar
    16     8    11    1
    17     8    12   ar
    18     9    10   ar
    19    10    15   ar
    20    10    16    1
    21    11    17    1
    22    11    32    1
    23    11    33    1
    24    12    13   ar
    25    13    15   ar
    26    13    20   ar
    27    14    16    2
    28    14    34    1
    29    16    35    1
    30    17    22    1
    31    17    36    1
    32    18    37    1
    33    18    38    1
    34    18    39    1
    35    19    40    1
    36    19    41    1
    37    19    42    1
    38    20    21   ar
    39    21    23   ar
    40    21    24    1
    41    22    25    1
    42    22    26    2
    43    23    43    1
    44    24    27   ar
    45    24    28   ar
    46    25    46    1
    47    25    47    1
    48    25    48    1
    49    26    49    1
    50    26    50    1
    51    27    29   ar
    52    27    51    1
    53    28    30   ar
    54    28    52    1
    55    29    31   ar
    56    29    53    1
    57    30    31   ar
    58    30    54    1
