@<TRIPOS>MOLECULE
IMPHY002314
 60 65 0 0 0
SMALL
GASTEIGER

@<TRIPOS>ATOM
      1 O           4.5945   -1.5740    0.0000 O.3     1  UNL1       -0.3874
      2 O           7.3536    1.3083    0.0000 O.3     1  UNL1       -0.3791
      3 O           7.4633   -1.8649    0.0000 O.3     1  UNL1       -0.4611
      4 O           7.9094   -0.2876    0.0000 O.2     1  UNL1       -0.2504
      5 N           3.7320    0.7947    0.0000 N.3     1  UNL1       -0.2981
      6 C           5.4875    0.8083    0.0000 C.3     1  UNL1        0.0200
      7 C           4.6215    1.3083    0.0000 C.3     1  UNL1       -0.0243
      8 C           4.6137    0.2902    0.0000 C.3     1  UNL1        0.0244
      9 C           4.6482   -0.6638    0.0000 C.3     1  UNL1        0.0052
     10 C           6.3080    0.3202    0.0000 C.3     1  UNL1       -0.0124
     11 C           4.6215    2.3083    0.0000 C.3     1  UNL1       -0.0158
     12 C           4.0656    0.3145    0.0000 C.3     1  UNL1       -0.0421
     13 C           5.4861   -1.1213    0.0000 C.3     1  UNL1        0.0836
     14 C           6.3073   -0.6344    0.0000 C.3     1  UNL1        0.0889
     15 C           6.3536    1.3083    0.0000 C.3     1  UNL1        0.0659
     16 C           3.7360    1.8106    0.0000 C.3     1  UNL1        0.0049
     17 C           5.4875    2.8083    0.0000 C.3     1  UNL1       -0.0438
     18 C           5.7702   -1.3453    0.0000 C.3     1  UNL1       -0.0113
     19 C           6.3536    2.3083    0.0000 C.3     1  UNL1       -0.0255
     20 C           5.3636   -2.0495    0.0000 C.3     1  UNL1       -0.0195
     21 C           6.9438   -2.6439    0.0000 C.3     1  UNL1        0.1035
     22 C           4.1265    3.1772    0.0000 C.3     1  UNL1       -0.0581
     23 C           6.0110   -2.7259    0.0000 C.3     1  UNL1       -0.0130
     24 C           7.1806   -0.9723    0.0000 C.2     1  UNL1        0.3135
     25 C           2.8660    0.2947    0.0000 C.3     1  UNL1       -0.0036
     26 C           2.0000    0.7947    0.0000 C.3     1  UNL1       -0.0523
     27 C           7.8536    2.1743    0.0000 C.3     1  UNL1        0.0368
     28 H           5.3518    1.7432    0.0000 H       1  UNL1        0.0313
     29 H           4.0805   -0.3717    0.0000 H       1  UNL1        0.0473
     30 H           3.9252   -1.1107    0.0000 H       1  UNL1        0.0344
     31 H           7.1579    0.3092    0.0000 H       1  UNL1        0.0317
     32 H           3.5853    0.7066    0.0000 H       1  UNL1        0.0272
     33 H           3.5961   -0.0904    0.0000 H       1  UNL1        0.0272
     34 H           7.0385   -0.2009    0.0000 H       1  UNL1        0.0445
     35 H           6.5140    0.7094    0.0000 H       1  UNL1        0.0602
     36 H           3.5292    2.3951    0.0000 H       1  UNL1        0.0432
     37 H           3.1247    1.7068    0.0000 H       1  UNL1        0.0432
     38 H           5.8861    3.2832    0.0000 H       1  UNL1        0.0272
     39 H           5.0890    3.2832    0.0000 H       1  UNL1        0.0272
     40 H           5.2223   -1.0553    0.0000 H       1  UNL1        0.0304
     41 H           5.3894   -1.8346    0.0000 H       1  UNL1        0.0304
     42 H           6.9642    2.2006    0.0000 H       1  UNL1        0.0290
     43 H           6.5656    2.8909    0.0000 H       1  UNL1        0.0290
     44 H           4.7825   -1.8331    0.0000 H       1  UNL1        0.0294
     45 H           5.0228   -2.5675    0.0000 H       1  UNL1        0.0294
     46 H           7.3772   -3.3750    0.0000 H       1  UNL1        0.0734
     47 H           4.6652    3.4841    0.0000 H       1  UNL1        0.0236
     48 H           3.8196    3.7159    0.0000 H       1  UNL1        0.0236
     49 H           3.5878    2.8703    0.0000 H       1  UNL1        0.0236
     50 H           5.4787   -3.0437    0.0000 H       1  UNL1        0.0302
     51 H           6.2019   -3.3158    0.0000 H       1  UNL1        0.0302
     52 H           2.4675   -0.1802    0.0000 H       1  UNL1        0.0424
     53 H           3.2646   -0.1802    0.0000 H       1  UNL1        0.0424
     54 H           4.5612   -2.1932    0.0000 H       1  UNL1        0.2102
     55 H           2.3100    1.3317    0.0000 H       1  UNL1        0.0242
     56 H           1.4631    1.1047    0.0000 H       1  UNL1        0.0242
     57 H           1.6900    0.2578    0.0000 H       1  UNL1        0.0242
     58 H           8.3905    1.8643    0.0000 H       1  UNL1        0.0524
     59 H           8.1636    2.7112    0.0000 H       1  UNL1        0.0524
     60 H           7.3166    2.4843    0.0000 H       1  UNL1        0.0524
@<TRIPOS>BOND
     1    13     1    1
     2     1    54    1
     3    15     2    1
     4     2    27    1
     5     3    21    1
     6     3    24    1
     7     4    24    2
     8     5     8    1
     9     5    16    1
    10     5    25    1
    11     6     7    1
    12     6     8    1
    13     6    10    1
    14     6    15    1
    15     7    11    1
    16     7    12    1
    17     7    28    1
    18     8     9    1
    19     8    29    1
    20     9    12    1
    21     9    13    1
    22     9    30    1
    23    10    14    1
    24    10    18    1
    25    10    31    1
    26    11    16    1
    27    11    17    1
    28    11    22    1
    29    12    32    1
    30    12    33    1
    31    13    14    1
    32    13    20    1
    33    14    24    1
    34    14    34    1
    35    15    19    1
    36    15    35    1
    37    16    36    1
    38    16    37    1
    39    17    19    1
    40    17    38    1
    41    17    39    1
    42    18    21    1
    43    18    40    1
    44    18    41    1
    45    19    42    1
    46    19    43    1
    47    20    23    1
    48    20    44    1
    49    20    45    1
    50    21    23    1
    51    21    46    1
    52    22    47    1
    53    22    48    1
    54    22    49    1
    55    23    50    1
    56    23    51    1
    57    25    26    1
    58    25    52    1
    59    25    53    1
    60    26    55    1
    61    26    56    1
    62    26    57    1
    63    27    58    1
    64    27    59    1
    65    27    60    1
