@<TRIPOS>MOLECULE
IMPHY010974
 52 51 0 0 0
SMALL
GASTEIGER

@<TRIPOS>ATOM
      1 O           8.5991   -1.0950    0.0000 O.3     1  UNL1       -0.3918
      2 O           2.5369    0.4050    0.0000 O.3     1  UNL1       -0.3950
      3 O          17.2594   -0.0950    0.0000 O.3     1  UNL1       -0.4806
      4 O          16.3933    1.4050    0.0000 O.2     1  UNL1       -0.2510
      5 C           8.5991   -0.0950    0.0000 C.3     1  UNL1        0.0553
      6 C           9.4651    0.4050    0.0000 C.3     1  UNL1       -0.0269
      7 C          10.3312   -0.0950    0.0000 C.3     1  UNL1       -0.0507
      8 C           7.7331    0.4050    0.0000 C.3     1  UNL1       -0.0269
      9 C          11.1972    0.4050    0.0000 C.3     1  UNL1       -0.0530
     10 C           6.8671   -0.0950    0.0000 C.3     1  UNL1       -0.0507
     11 C          12.0632   -0.0950    0.0000 C.3     1  UNL1       -0.0531
     12 C           6.0010    0.4050    0.0000 C.3     1  UNL1       -0.0529
     13 C          12.9292    0.4050    0.0000 C.3     1  UNL1       -0.0530
     14 C          13.7953   -0.0950    0.0000 C.3     1  UNL1       -0.0526
     15 C           5.1350   -0.0950    0.0000 C.3     1  UNL1       -0.0510
     16 C          14.6613    0.4050    0.0000 C.3     1  UNL1       -0.0430
     17 C           4.2690    0.4050    0.0000 C.3     1  UNL1       -0.0297
     18 C          15.5273   -0.0950    0.0000 C.3     1  UNL1        0.0448
     19 C           3.4030   -0.0950    0.0000 C.3     1  UNL1        0.0442
     20 C          16.3933    0.4050    0.0000 C.2     1  UNL1        0.3047
     21 H           8.0622   -0.4050    0.0000 H       1  UNL1        0.0593
     22 H           9.8637    0.8799    0.0000 H       1  UNL1        0.0290
     23 H           9.0666    0.8799    0.0000 H       1  UNL1        0.0290
     24 H           9.9326   -0.5699    0.0000 H       1  UNL1        0.0266
     25 H          10.7297   -0.5699    0.0000 H       1  UNL1        0.0266
     26 H           8.1316    0.8799    0.0000 H       1  UNL1        0.0290
     27 H           7.3346    0.8799    0.0000 H       1  UNL1        0.0290
     28 H          11.5957    0.8799    0.0000 H       1  UNL1        0.0265
     29 H          10.7987    0.8799    0.0000 H       1  UNL1        0.0265
     30 H           6.4685   -0.5699    0.0000 H       1  UNL1        0.0266
     31 H           7.2656   -0.5699    0.0000 H       1  UNL1        0.0266
     32 H          11.6647   -0.5699    0.0000 H       1  UNL1        0.0265
     33 H          12.4617   -0.5699    0.0000 H       1  UNL1        0.0265
     34 H           6.3996    0.8799    0.0000 H       1  UNL1        0.0265
     35 H           5.6025    0.8799    0.0000 H       1  UNL1        0.0265
     36 H          13.3278    0.8799    0.0000 H       1  UNL1        0.0265
     37 H          12.5307    0.8799    0.0000 H       1  UNL1        0.0265
     38 H          13.3967   -0.5699    0.0000 H       1  UNL1        0.0265
     39 H          14.1938   -0.5699    0.0000 H       1  UNL1        0.0265
     40 H           4.7365   -0.5699    0.0000 H       1  UNL1        0.0266
     41 H           5.5335   -0.5699    0.0000 H       1  UNL1        0.0266
     42 H          15.0598    0.8799    0.0000 H       1  UNL1        0.0270
     43 H          14.2628    0.8799    0.0000 H       1  UNL1        0.0270
     44 H           4.6675    0.8799    0.0000 H       1  UNL1        0.0287
     45 H           3.8705    0.8799    0.0000 H       1  UNL1        0.0287
     46 H           8.0622   -1.4050    0.0000 H       1  UNL1        0.2098
     47 H          15.1288   -0.5699    0.0000 H       1  UNL1        0.0377
     48 H          15.9258   -0.5699    0.0000 H       1  UNL1        0.0377
     49 H           3.0044   -0.5699    0.0000 H       1  UNL1        0.0557
     50 H           3.8015   -0.5699    0.0000 H       1  UNL1        0.0557
     51 H           2.0000    0.0950    0.0000 H       1  UNL1        0.2094
     52 H          17.7963    0.2150    0.0000 H       1  UNL1        0.2951
@<TRIPOS>BOND
     1     1     5    1
     2     1    46    1
     3     2    19    1
     4     2    51    1
     5     3    20    1
     6     3    52    1
     7     4    20    2
     8     5     6    1
     9     5     8    1
    10     5    21    1
    11     6     7    1
    12     6    22    1
    13     6    23    1
    14     7     9    1
    15     7    24    1
    16     7    25    1
    17     8    10    1
    18     8    26    1
    19     8    27    1
    20     9    11    1
    21     9    28    1
    22     9    29    1
    23    10    12    1
    24    10    30    1
    25    10    31    1
    26    11    13    1
    27    11    32    1
    28    11    33    1
    29    12    15    1
    30    12    34    1
    31    12    35    1
    32    13    14    1
    33    13    36    1
    34    13    37    1
    35    14    16    1
    36    14    38    1
    37    14    39    1
    38    15    17    1
    39    15    40    1
    40    15    41    1
    41    16    18    1
    42    16    42    1
    43    16    43    1
    44    17    19    1
    45    17    44    1
    46    17    45    1
    47    18    20    1
    48    18    47    1
    49    18    48    1
    50    19    49    1
    51    19    50    1
