@<TRIPOS>MOLECULE
IMPHY013880
 52 56 0 0 0
SMALL
GASTEIGER

@<TRIPOS>ATOM
      1 O           7.9093   -1.6303    0.0000 O.3     1  UNL1       -0.4672
      2 O           6.1775   -0.9002    0.0000 O.2     1  UNL1       -0.2497
      3 O           2.3275   -1.4937    0.0000 O.3     1  UNL1       -0.5067
      4 N           6.9978    1.7815    0.0000 N.3     1  UNL1       -0.2971
      5 N           6.3618   -1.3938    0.0000 N.ar    1  UNL1       -0.3568
      6 C           7.6213    0.9997    0.0000 C.3     1  UNL1        0.0344
      7 C           7.3988    0.0248    0.0000 C.3     1  UNL1        0.1235
      8 C           9.1490   -0.3961    0.0000 C.3     1  UNL1       -0.0265
      9 C           8.6118    1.3220    0.0000 C.3     1  UNL1       -0.0240
     10 C           8.1513   -0.6954    0.0000 C.3     1  UNL1       -0.0262
     11 C           9.3808    0.6195    0.0000 C.3     1  UNL1       -0.0447
     12 C           8.7020    1.3137    0.0000 C.3     1  UNL1        0.0021
     13 C           6.4978   -0.4091    0.0000 C.ar    1  UNL1        0.0388
     14 C           5.9978    1.7815    0.0000 C.3     1  UNL1        0.0033
     15 C           8.8230    2.2995    0.0000 C.3     1  UNL1       -0.0516
     16 C           7.1763   -0.9502    0.0000 C.2     1  UNL1        0.3205
     17 C           5.5968    0.0248    0.0000 C.ar    1  UNL1       -0.0167
     18 C           5.3743    0.9997    0.0000 C.3     1  UNL1       -0.0126
     19 C           4.9117   -0.6955    0.0000 C.ar    1  UNL1        0.0066
     20 C           9.7751    2.6053    0.0000 C.3     1  UNL1       -0.0650
     21 C           5.3836   -1.5705    0.0000 C.ar    1  UNL1        0.0472
     22 C           3.8773   -0.6495    0.0000 C.ar    1  UNL1       -0.0108
     23 C           4.8536   -2.4601    0.0000 C.ar    1  UNL1       -0.0343
     24 C           7.6868   -2.6053    0.0000 C.3     1  UNL1        0.0817
     25 C           3.3270   -1.5266    0.0000 C.ar    1  UNL1        0.1176
     26 C           3.8184   -2.4380    0.0000 C.ar    1  UNL1       -0.0182
     27 H           7.8104    1.8284    0.0000 H       1  UNL1        0.0480
     28 H           9.3640   -1.2184    0.0000 H       1  UNL1        0.0314
     29 H           8.1517    1.7376    0.0000 H       1  UNL1        0.0316
     30 H           7.6524   -1.0634    0.0000 H       1  UNL1        0.0283
     31 H           8.4285   -1.2500    0.0000 H       1  UNL1        0.0283
     32 H           9.9527    0.3801    0.0000 H       1  UNL1        0.0271
     33 H           9.7145    1.1420    0.0000 H       1  UNL1        0.0271
     34 H           9.3200    1.3640    0.0000 H       1  UNL1        0.0429
     35 H           8.7598    1.9310    0.0000 H       1  UNL1        0.0429
     36 H           6.1358    2.3860    0.0000 H       1  UNL1        0.0430
     37 H           5.4392    2.0505    0.0000 H       1  UNL1        0.0430
     38 H           8.7388    2.9137    0.0000 H       1  UNL1        0.0266
     39 H           8.2035    2.3232    0.0000 H       1  UNL1        0.0266
     40 H           4.9878    1.4844    0.0000 H       1  UNL1        0.0326
     41 H           4.8157    0.7307    0.0000 H       1  UNL1        0.0326
     42 H           6.8092   -1.8231    0.0000 H       1  UNL1        0.1656
     43 H           9.9647    2.0149    0.0000 H       1  UNL1        0.0230
     44 H          10.3654    2.7948    0.0000 H       1  UNL1        0.0230
     45 H           9.5856    3.1956    0.0000 H       1  UNL1        0.0230
     46 H           3.5894   -0.1004    0.0000 H       1  UNL1        0.0661
     47 H           5.1542   -3.0024    0.0000 H       1  UNL1        0.0639
     48 H           7.0823   -2.4673    0.0000 H       1  UNL1        0.0661
     49 H           7.5488   -3.2097    0.0000 H       1  UNL1        0.0661
     50 H           8.2912   -2.7432    0.0000 H       1  UNL1        0.0661
     51 H           3.4950   -2.9670    0.0000 H       1  UNL1        0.0655
     52 H           2.0000   -2.0201    0.0000 H       1  UNL1        0.2921
@<TRIPOS>BOND
     1     1    16    1
     2     1    24    1
     3     2    16    2
     4     3    25    1
     5     3    52    1
     6     4     6    1
     7     4    12    1
     8     4    14    1
     9     5    13   ar
    10     5    21   ar
    11     5    42    1
    12     6     7    1
    13     6     9    1
    14     6    27    1
    15     7    10    1
    16     7    13    1
    17     7    16    1
    18     8    10    1
    19     8    11    1
    20     8    12    1
    21     8    28    1
    22     9    11    1
    23     9    15    1
    24     9    29    1
    25    10    30    1
    26    10    31    1
    27    11    32    1
    28    11    33    1
    29    12    34    1
    30    12    35    1
    31    13    17   ar
    32    14    18    1
    33    14    36    1
    34    14    37    1
    35    15    20    1
    36    15    38    1
    37    15    39    1
    38    17    18    1
    39    17    19   ar
    40    18    40    1
    41    18    41    1
    42    19    21   ar
    43    19    22   ar
    44    20    43    1
    45    20    44    1
    46    20    45    1
    47    21    23   ar
    48    22    25   ar
    49    22    46    1
    50    23    26   ar
    51    23    47    1
    52    24    48    1
    53    24    49    1
    54    24    50    1
    55    25    26   ar
    56    26    51    1
