@<TRIPOS>MOLECULE
IMPHY014006
 81 85 0 0 0
SMALL
GASTEIGER

@<TRIPOS>ATOM
      1 O          10.0571    0.3969    0.0000 O.3     1  UNL1       -0.3945
      2 C           6.5251   -0.6372    0.0000 C.3     1  UNL1       -0.0233
      3 C           5.6591   -1.1372    0.0000 C.3     1  UNL1       -0.0231
      4 C           4.7931   -0.6372    0.0000 C.3     1  UNL1       -0.0294
      5 C           6.5251    0.3628    0.0000 C.3     1  UNL1       -0.0312
      6 C           3.8831   -1.1441    0.0000 C.3     1  UNL1       -0.0254
      7 C           7.4191    0.8974    0.0000 C.3     1  UNL1       -0.0235
      8 C           8.3252    0.3836    0.0000 C.3     1  UNL1       -0.0024
      9 C           3.8751   -2.1857    0.0000 C.3     1  UNL1       -0.0302
     10 C           7.4191   -1.1719    0.0000 C.3     1  UNL1       -0.0463
     11 C           5.6752   -2.1788    0.0000 C.3     1  UNL1       -0.0466
     12 C           4.7931    0.3628    0.0000 C.3     1  UNL1       -0.0489
     13 C           5.6591    0.8628    0.0000 C.3     1  UNL1       -0.0491
     14 C           8.3252   -0.6581    0.0000 C.3     1  UNL1       -0.0445
     15 C           4.7771   -2.7065    0.0000 C.3     1  UNL1       -0.0487
     16 C           7.6292    1.9113    0.0000 C.3     1  UNL1       -0.0167
     17 C           2.9396   -2.7354    0.0000 C.3     1  UNL1       -0.0315
     18 C           2.9562   -0.5800    0.0000 C.3     1  UNL1       -0.0471
     19 C           9.0875    1.0843    0.0000 C.3     1  UNL1       -0.0445
     20 C           6.8672   -1.5769    0.0000 C.3     1  UNL1       -0.0588
     21 C           6.3019   -1.9033    0.0000 C.3     1  UNL1       -0.0588
     22 C           8.6582    2.0266    0.0000 C.3     1  UNL1       -0.0457
     23 C           3.8908   -0.1441    0.0000 C.3     1  UNL1       -0.0590
     24 C           9.1950   -0.1097    0.0000 C.3     1  UNL1        0.0501
     25 C           2.0000   -2.1929    0.0000 C.3     1  UNL1       -0.0476
     26 C           2.0084   -1.1080    0.0000 C.3     1  UNL1       -0.0521
     27 C           6.9556    2.6505    0.0000 C.2     1  UNL1       -0.0763
     28 C           2.4430   -3.6034    0.0000 C.3     1  UNL1       -0.0595
     29 C           3.4430   -3.5995    0.0000 C.3     1  UNL1       -0.0595
     30 C           7.2590    3.6034    0.0000 C.3     1  UNL1       -0.0438
     31 C           5.9787    2.4367    0.0000 C.2     1  UNL1       -0.0994
     32 H           5.3300   -0.3272    0.0000 H       1  UNL1        0.0312
     33 H           6.5204    0.9827    0.0000 H       1  UNL1        0.0309
     34 H           6.9138    1.2567    0.0000 H       1  UNL1        0.0315
     35 H           3.8774   -2.8057    0.0000 H       1  UNL1        0.0311
     36 H           7.0145   -1.6417    0.0000 H       1  UNL1        0.0271
     37 H           7.8127   -1.6509    0.0000 H       1  UNL1        0.0271
     38 H           5.8932   -2.7592    0.0000 H       1  UNL1        0.0271
     39 H           6.2843   -2.0632    0.0000 H       1  UNL1        0.0271
     40 H           4.5810    0.9454    0.0000 H       1  UNL1        0.0268
     41 H           4.1825    0.2551    0.0000 H       1  UNL1        0.0268
     42 H           6.0576    1.3377    0.0000 H       1  UNL1        0.0268
     43 H           5.2606    1.3377    0.0000 H       1  UNL1        0.0268
     44 H           8.5342   -1.2418    0.0000 H       1  UNL1        0.0272
     45 H           8.9360   -0.5520    0.0000 H       1  UNL1        0.0272
     46 H           4.3798   -3.1825    0.0000 H       1  UNL1        0.0268
     47 H           5.1781   -3.1794    0.0000 H       1  UNL1        0.0268
     48 H           7.8477    2.4916    0.0000 H       1  UNL1        0.0348
     49 H           3.3645   -0.1134    0.0000 H       1  UNL1        0.0271
     50 H           2.5663   -0.0980    0.0000 H       1  UNL1        0.0271
     51 H           9.4568    0.5863    0.0000 H       1  UNL1        0.0272
     52 H           9.6215    1.3992    0.0000 H       1  UNL1        0.0272
     53 H           6.2847   -1.7890    0.0000 H       1  UNL1        0.0235
     54 H           7.0794   -2.1595    0.0000 H       1  UNL1        0.0235
     55 H           7.4498   -1.3648    0.0000 H       1  UNL1        0.0235
     56 H           5.8270   -2.3018    0.0000 H       1  UNL1        0.0235
     57 H           6.7004   -2.3782    0.0000 H       1  UNL1        0.0235
     58 H           6.7768   -1.5048    0.0000 H       1  UNL1        0.0235
     59 H           9.2463    2.2229    0.0000 H       1  UNL1        0.0271
     60 H           8.5248    2.6321    0.0000 H       1  UNL1        0.0271
     61 H           4.5108   -0.1489    0.0000 H       1  UNL1        0.0235
     62 H           3.8956    0.4759    0.0000 H       1  UNL1        0.0235
     63 H           3.2708   -0.1393    0.0000 H       1  UNL1        0.0235
     64 H           8.8002   -0.5877    0.0000 H       1  UNL1        0.0563
     65 H           9.5972   -0.5816    0.0000 H       1  UNL1        0.0563
     66 H           1.3900   -2.0821    0.0000 H       1  UNL1        0.0271
     67 H           1.7864   -2.7750    0.0000 H       1  UNL1        0.0271
     68 H           1.8038   -0.5227    0.0000 H       1  UNL1        0.0266
     69 H           1.3967   -1.2093    0.0000 H       1  UNL1        0.0266
     70 H           1.9048   -3.2954    0.0000 H       1  UNL1        0.0235
     71 H           2.1350   -4.1415    0.0000 H       1  UNL1        0.0235
     72 H           2.9811   -3.9113    0.0000 H       1  UNL1        0.0235
     73 H           2.9072   -3.9116    0.0000 H       1  UNL1        0.0235
     74 H           3.7550   -4.1352    0.0000 H       1  UNL1        0.0235
     75 H           3.9787   -3.2874    0.0000 H       1  UNL1        0.0235
     76 H          10.5965    0.0911    0.0000 H       1  UNL1        0.2094
     77 H           7.8497    3.4153    0.0000 H       1  UNL1        0.0274
     78 H           7.4470    4.1941    0.0000 H       1  UNL1        0.0274
     79 H           6.6682    3.7914    0.0000 H       1  UNL1        0.0274
     80 H           5.5611    2.8950    0.0000 H       1  UNL1        0.0534
     81 H           5.7907    1.8459    0.0000 H       1  UNL1        0.0534
@<TRIPOS>BOND
     1     1    24    1
     2     1    76    1
     3     2     3    1
     4     2     5    1
     5     2    10    1
     6     2    20    1
     7     3     4    1
     8     3    11    1
     9     3    21    1
    10     4     6    1
    11     4    12    1
    12     4    32    1
    13     5     7    1
    14     5    13    1
    15     5    33    1
    16     6     9    1
    17     6    18    1
    18     6    23    1
    19     7     8    1
    20     7    16    1
    21     7    34    1
    22     8    14    1
    23     8    19    1
    24     8    24    1
    25     9    15    1
    26     9    17    1
    27     9    35    1
    28    10    14    1
    29    10    36    1
    30    10    37    1
    31    11    15    1
    32    11    38    1
    33    11    39    1
    34    12    13    1
    35    12    40    1
    36    12    41    1
    37    13    42    1
    38    13    43    1
    39    14    44    1
    40    14    45    1
    41    15    46    1
    42    15    47    1
    43    16    22    1
    44    16    27    1
    45    16    48    1
    46    17    25    1
    47    17    28    1
    48    17    29    1
    49    18    26    1
    50    18    49    1
    51    18    50    1
    52    19    22    1
    53    19    51    1
    54    19    52    1
    55    20    53    1
    56    20    54    1
    57    20    55    1
    58    21    56    1
    59    21    57    1
    60    21    58    1
    61    22    59    1
    62    22    60    1
    63    23    61    1
    64    23    62    1
    65    23    63    1
    66    24    64    1
    67    24    65    1
    68    25    26    1
    69    25    66    1
    70    25    67    1
    71    26    68    1
    72    26    69    1
    73    27    30    1
    74    27    31    2
    75    28    70    1
    76    28    71    1
    77    28    72    1
    78    29    73    1
    79    29    74    1
    80    29    75    1
    81    30    77    1
    82    30    78    1
    83    30    79    1
    84    31    80    1
    85    31    81    1
