@<TRIPOS>MOLECULE
IMPHY005276
 32 34 0 0 0
SMALL
GASTEIGER

@<TRIPOS>ATOM
      1 O4*         7.3435    0.6702    0.0000 O.3     1    G1       -0.3484
      2 O3*         6.0873    2.9324    0.0000 O.3     1    G1       -0.3890
      3 O5*         9.0681    1.8482    0.0000 O.3     1    G1       -0.3924
      4 O6          4.2690   -3.3924    0.0000 O.2     1    G1       -0.2633
      5 N9          6.0812   -0.5877    0.0000 N.ar    1    G1       -0.2893
      6 N3          4.2690   -0.3925    0.0000 N.ar    1    G1       -0.3122
      7 N7          6.0812   -2.1972    0.0000 N.ar    1    G1       -0.2286
      8 N1          3.4030   -1.8924    0.0000 N.ar    1    G1       -0.1756
      9 N2          2.5369   -0.3925    0.0000 N.pl3   1    G1       -0.3289
     10 C1*         6.3919    0.3628    0.0000 C.3     1    G1        0.1407
     11 C2*         5.8055    1.1728    0.0000 C.3     1    G1        0.0213
     12 C3*         6.3947    1.9808    0.0000 C.3     1    G1        0.0876
     13 C4*         7.3452    1.6702    0.0000 C.3     1    G1        0.1100
     14 C5*         8.1552    2.2566    0.0000 C.3     1    G1        0.0729
     15 C4          5.1350   -0.8925    0.0000 C.ar    1    G1        0.1482
     16 C8          6.6648   -1.3924    0.0000 C.ar    1    G1        0.1004
     17 C5          5.1350   -1.8924    0.0000 C.ar    1    G1        0.1721
     18 C6          4.2690   -2.3925    0.0000 C.ar    1    G1        0.3021
     19 C2          3.4030   -0.8925    0.0000 C.ar    1    G1        0.1952
     20 H1*         5.7794    0.2669    0.0000 H       1    G1        0.0840
     21 H2*1        5.3455    1.5885    0.0000 H       1    G1        0.0335
     22 H2*2        5.3440    0.7588    0.0000 H       1    G1        0.0335
     23 H3*         5.7825    2.0789    0.0000 H       1    G1        0.0621
     24 H4*         7.8972    1.3877    0.0000 H       1    G1        0.0646
     25 H5*1        8.5028    2.7700    0.0000 H       1    G1        0.0584
     26 H5*2        7.7100    2.6880    0.0000 H       1    G1        0.0584
     27 H8          7.2848   -1.3924    0.0000 H       1    G1        0.1030
     28 H3*         6.5030    3.3924    0.0000 H       1    G1        0.2099
     29 H3          4.2690    0.2275    0.0000 H       1    G1        0.1700
     30 H5*         9.5703    2.2118    0.0000 H       1    G1        0.2095
     31 H21         2.0000   -0.7025    0.0000 H       1    G1        0.1451
     32 H22         2.5369    0.2275    0.0000 H       1    G1        0.1451
@<TRIPOS>BOND
     1     1    10    1
     2     1    13    1
     3    12     2    1
     4     2    28    1
     5     3    14    1
     6     3    30    1
     7     4    18    2
     8    10     5    1
     9     5    15   ar
    10     5    16   ar
    11     6    15   ar
    12     6    19   ar
    13     6    29    1
    14     7    16   ar
    15     7    17   ar
    16     8    18   ar
    17     8    19   ar
    18     9    19    1
    19     9    31    1
    20     9    32    1
    21    10    11    1
    22    10    20    1
    23    11    12    1
    24    11    21    1
    25    11    22    1
    26    12    13    1
    27    12    23    1
    28    13    14    1
    29    13    24    1
    30    14    25    1
    31    14    26    1
    32    15    17   ar
    33    16    27    1
    34    17    18   ar
