@<TRIPOS>MOLECULE
IMPHY017211
 39 41 0 0 0
SMALL
GASTEIGER

@<TRIPOS>ATOM
      1 C           4.6660   -0.5668    0.0000 C.3     1  UNL1       -0.0253
      2 C           5.5321   -0.0668    0.0000 C.3     1  UNL1       -0.0317
      3 C           5.5323   -1.0672    0.0000 C.3     1  UNL1       -0.0281
      4 C           3.8000   -0.0668    0.0000 C.3     1  UNL1       -0.0112
      5 C           3.8000    0.9332    0.0000 C.3     1  UNL1       -0.0253
      6 C           5.5321    0.9332    0.0000 C.3     1  UNL1       -0.0489
      7 C           4.6660    1.4332    0.0000 C.3     1  UNL1       -0.0468
      8 C           6.5323   -1.0672    0.0000 C.3     1  UNL1       -0.0593
      9 C           5.0323   -1.9332    0.0000 C.3     1  UNL1       -0.0593
     10 C           2.9061    1.4679    0.0000 C.3     1  UNL1       -0.0468
     11 C           2.9061   -0.6014    0.0000 C.2     1  UNL1       -0.0727
     12 C           3.8000    1.9332    0.0000 C.3     1  UNL1       -0.0590
     13 C           2.0000    0.9540    0.0000 C.3     1  UNL1       -0.0489
     14 C           2.0000   -0.0876    0.0000 C.3     1  UNL1       -0.0317
     15 C           2.9176   -1.6014    0.0000 C.2     1  UNL1       -0.0992
     16 H           4.2409   -1.3028    0.0000 H       1  UNL1        0.0315
     17 H           6.3821   -0.0667    0.0000 H       1  UNL1        0.0309
     18 H           3.8066   -0.9167    0.0000 H       1  UNL1        0.0354
     19 H           6.1426    0.8256    0.0000 H       1  UNL1        0.0268
     20 H           5.7441    1.5158    0.0000 H       1  UNL1        0.0268
     21 H           5.0646    1.9082    0.0000 H       1  UNL1        0.0271
     22 H           4.2675    1.9082    0.0000 H       1  UNL1        0.0271
     23 H           6.5323   -1.6872    0.0000 H       1  UNL1        0.0235
     24 H           7.1523   -1.0672    0.0000 H       1  UNL1        0.0235
     25 H           6.5323   -0.4472    0.0000 H       1  UNL1        0.0235
     26 H           4.4954   -1.6232    0.0000 H       1  UNL1        0.0235
     27 H           4.7223   -2.4702    0.0000 H       1  UNL1        0.0235
     28 H           5.5692   -2.2432    0.0000 H       1  UNL1        0.0235
     29 H           3.3107    1.9377    0.0000 H       1  UNL1        0.0271
     30 H           2.5124    1.9469    0.0000 H       1  UNL1        0.0271
     31 H           4.4200    1.9332    0.0000 H       1  UNL1        0.0235
     32 H           3.8000    2.5532    0.0000 H       1  UNL1        0.0235
     33 H           3.1800    1.9332    0.0000 H       1  UNL1        0.0235
     34 H           1.7909    1.5377    0.0000 H       1  UNL1        0.0268
     35 H           1.3891    0.8480    0.0000 H       1  UNL1        0.0268
     36 H           1.3891    0.0185    0.0000 H       1  UNL1        0.0310
     37 H           1.7909   -0.6713    0.0000 H       1  UNL1        0.0310
     38 H           2.3843   -1.9176    0.0000 H       1  UNL1        0.0534
     39 H           3.4581   -1.9051    0.0000 H       1  UNL1        0.0534
@<TRIPOS>BOND
     1     1     2    1
     2     1     3    1
     3     1     4    1
     4     1    16    1
     5     2     3    1
     6     2     6    1
     7     2    17    1
     8     3     8    1
     9     3     9    1
    10     4     5    1
    11     4    11    1
    12     4    18    1
    13     5     7    1
    14     5    10    1
    15     5    12    1
    16     6     7    1
    17     6    19    1
    18     6    20    1
    19     7    21    1
    20     7    22    1
    21     8    23    1
    22     8    24    1
    23     8    25    1
    24     9    26    1
    25     9    27    1
    26     9    28    1
    27    10    13    1
    28    10    29    1
    29    10    30    1
    30    11    14    1
    31    11    15    2
    32    12    31    1
    33    12    32    1
    34    12    33    1
    35    13    14    1
    36    13    34    1
    37    13    35    1
    38    14    36    1
    39    14    37    1
    40    15    38    1
    41    15    39    1
