@<TRIPOS>MOLECULE
IMPHY002426
 36 38 0 0 0
SMALL
GASTEIGER

@<TRIPOS>ATOM
      1 O           5.1350   -0.1392    0.0000 O.3     1  UNL1       -0.3307
      2 O           6.8671   -0.1392    0.0000 O.3     1  UNL1       -0.4583
      3 O           3.4030   -2.1392    0.0000 O.3     1  UNL1       -0.3815
      4 O           6.8671   -2.1392    0.0000 O.3     1  UNL1       -0.3783
      5 O           5.1350   -3.1392    0.0000 O.2     1  UNL1       -0.2916
      6 O           2.5369   -0.6392    0.0000 O.3     1  UNL1       -0.3924
      7 N           6.3671    2.3906    0.0000 N.ar    1  UNL1       -0.3576
      8 C           4.2690   -0.6392    0.0000 C.3     1  UNL1        0.1185
      9 C           4.2690   -1.6392    0.0000 C.3     1  UNL1        0.1440
     10 C           6.0010   -0.6392    0.0000 C.3     1  UNL1        0.2354
     11 C           6.0010   -1.6392    0.0000 C.3     1  UNL1        0.1777
     12 C           5.1350   -2.1392    0.0000 C.2     1  UNL1        0.1984
     13 C           3.4030   -0.1392    0.0000 C.3     1  UNL1        0.0734
     14 C           6.8671    0.8608    0.0000 C.ar    1  UNL1        0.1489
     15 C           7.6718    1.4444    0.0000 C.ar    1  UNL1        0.0415
     16 C           7.3611    2.3949    0.0000 C.ar    1  UNL1        0.0501
     17 C           6.0623    1.4444    0.0000 C.ar    1  UNL1        0.0451
     18 C           8.6503    1.2382    0.0000 C.ar    1  UNL1       -0.0491
     19 C           8.0290    3.1392    0.0000 C.ar    1  UNL1       -0.0377
     20 C           9.3181    1.9825    0.0000 C.ar    1  UNL1       -0.0610
     21 C           9.0075    2.9330    0.0000 C.ar    1  UNL1       -0.0598
     22 H           4.2690   -0.0192    0.0000 H       1  UNL1        0.0651
     23 H           4.2690   -2.2592    0.0000 H       1  UNL1        0.0701
     24 H           6.0010   -0.0192    0.0000 H       1  UNL1        0.1088
     25 H           6.0010   -2.2592    0.0000 H       1  UNL1        0.0737
     26 H           3.8015    0.3357    0.0000 H       1  UNL1        0.0584
     27 H           3.0044    0.3357    0.0000 H       1  UNL1        0.0584
     28 H           3.4030   -2.7592    0.0000 H       1  UNL1        0.2105
     29 H           6.8671   -2.7592    0.0000 H       1  UNL1        0.2106
     30 H           5.4730    1.2518    0.0000 H       1  UNL1        0.0844
     31 H           6.0009    2.8909    0.0000 H       1  UNL1        0.1654
     32 H           8.8429    0.6489    0.0000 H       1  UNL1        0.0625
     33 H           2.0000   -0.3292    0.0000 H       1  UNL1        0.2095
     34 H           7.8364    3.7285    0.0000 H       1  UNL1        0.0638
     35 H           9.9248    1.8546    0.0000 H       1  UNL1        0.0618
     36 H           9.4216    3.3945    0.0000 H       1  UNL1        0.0618
@<TRIPOS>BOND
     1     1     8    1
     2     1    10    1
     3    10     2    1
     4     2    14    1
     5     9     3    1
     6     3    28    1
     7    11     4    1
     8     4    29    1
     9     5    12    2
    10     6    13    1
    11     6    33    1
    12     7    16   ar
    13     7    17   ar
    14     7    31    1
    15     8     9    1
    16     8    13    1
    17     8    22    1
    18     9    12    1
    19     9    23    1
    20    10    11    1
    21    10    24    1
    22    11    12    1
    23    11    25    1
    24    13    26    1
    25    13    27    1
    26    14    15   ar
    27    14    17   ar
    28    15    16   ar
    29    15    18   ar
    30    16    19   ar
    31    17    30    1
    32    18    20   ar
    33    18    32    1
    34    19    21   ar
    35    19    34    1
    36    20    21   ar
    37    20    35    1
    38    21    36    1
