@<TRIPOS>MOLECULE
IMPHY011996
 52 56 0 0 0
SMALL
GASTEIGER

@<TRIPOS>ATOM
      1 O           9.3042   -2.0697    0.0000 O.3     1  UNL1       -0.3910
      2 O           7.5596   -2.5737    0.0000 O.3     1  UNL1       -0.4677
      3 O           6.2860   -1.3999    0.0000 O.2     1  UNL1       -0.2504
      4 N           6.9654    2.1163    0.0000 N.3     1  UNL1       -0.2934
      5 N           4.5124    0.9988    0.0000 N.ar    1  UNL1       -0.3564
      6 C           7.6200    0.1532    0.0000 C.3     1  UNL1       -0.0200
      7 C           8.3170    0.9273    0.0000 C.3     1  UNL1       -0.0244
      8 C           6.6028    0.3776    0.0000 C.3     1  UNL1       -0.0279
      9 C           6.2962    1.3731    0.0000 C.3     1  UNL1        0.0512
     10 C           7.9393   -0.8837    0.0000 C.3     1  UNL1        0.0854
     11 C           7.9875    1.9154    0.0000 C.3     1  UNL1        0.0026
     12 C           9.3816    0.7181    0.0000 C.3     1  UNL1       -0.0464
     13 C           8.9988   -1.1175    0.0000 C.3     1  UNL1        0.0684
     14 C           9.7248   -0.3112    0.0000 C.3     1  UNL1       -0.0258
     15 C           5.3181    1.5810    0.0000 C.ar    1  UNL1        0.0376
     16 C           6.6564    3.0673    0.0000 C.3     1  UNL1        0.0036
     17 C           5.0091    2.5321    0.0000 C.ar    1  UNL1       -0.0164
     18 C           5.6782    3.2752    0.0000 C.3     1  UNL1       -0.0125
     19 C           7.2616   -1.6191    0.0000 C.2     1  UNL1        0.3127
     20 C           4.0150    2.5295    0.0000 C.ar    1  UNL1        0.0032
     21 C           3.7086    1.5838    0.0000 C.ar    1  UNL1        0.0470
     22 C           3.3334    3.3090    0.0000 C.ar    1  UNL1       -0.0523
     23 C           2.6994    1.3521    0.0000 C.ar    1  UNL1       -0.0378
     24 C           2.3191    3.1007    0.0000 C.ar    1  UNL1       -0.0611
     25 C           2.0000    2.1156    0.0000 C.ar    1  UNL1       -0.0598
     26 C           6.8820   -3.3090    0.0000 C.3     1  UNL1        0.0817
     27 H           7.0440   -0.4718    0.0000 H       1  UNL1        0.0313
     28 H           8.8784    1.5655    0.0000 H       1  UNL1        0.0316
     29 H           5.9878    0.2992    0.0000 H       1  UNL1        0.0287
     30 H           6.5748   -0.2417    0.0000 H       1  UNL1        0.0287
     31 H           5.7226    0.7459    0.0000 H       1  UNL1        0.0527
     32 H           7.3346   -0.7467    0.0000 H       1  UNL1        0.0442
     33 H           8.6005    2.0080    0.0000 H       1  UNL1        0.0429
     34 H           8.0011    2.5353    0.0000 H       1  UNL1        0.0429
     35 H           9.9946    0.8107    0.0000 H       1  UNL1        0.0269
     36 H           9.3953    1.3380    0.0000 H       1  UNL1        0.0269
     37 H           9.6050   -1.2476    0.0000 H       1  UNL1        0.0601
     38 H          10.1078   -0.7988    0.0000 H       1  UNL1        0.0290
     39 H          10.2708   -0.0173    0.0000 H       1  UNL1        0.0290
     40 H           7.2703    3.1536    0.0000 H       1  UNL1        0.0430
     41 H           6.6780    3.6869    0.0000 H       1  UNL1        0.0430
     42 H           5.9105    3.8501    0.0000 H       1  UNL1        0.0326
     43 H           5.1524    3.6038    0.0000 H       1  UNL1        0.0326
     44 H           4.5113    0.3788    0.0000 H       1  UNL1        0.1656
     45 H           9.9101   -2.2010    0.0000 H       1  UNL1        0.2098
     46 H           3.5313    3.8966    0.0000 H       1  UNL1        0.0624
     47 H           2.5152    0.7601    0.0000 H       1  UNL1        0.0638
     48 H           1.9056    3.5626    0.0000 H       1  UNL1        0.0618
     49 H           1.3942    1.9838    0.0000 H       1  UNL1        0.0618
     50 H           6.4260   -2.8888    0.0000 H       1  UNL1        0.0661
     51 H           6.4618   -3.7649    0.0000 H       1  UNL1        0.0661
     52 H           7.3379   -3.7292    0.0000 H       1  UNL1        0.0661
@<TRIPOS>BOND
     1    13     1    1
     2     1    45    1
     3     2    19    1
     4     2    26    1
     5     3    19    2
     6     4     9    1
     7     4    11    1
     8     4    16    1
     9     5    15   ar
    10     5    21   ar
    11     5    44    1
    12     6     7    1
    13     6     8    1
    14     6    10    1
    15     6    27    1
    16     7    11    1
    17     7    12    1
    18     7    28    1
    19     8     9    1
    20     8    29    1
    21     8    30    1
    22     9    15    1
    23     9    31    1
    24    10    13    1
    25    10    19    1
    26    10    32    1
    27    11    33    1
    28    11    34    1
    29    12    14    1
    30    12    35    1
    31    12    36    1
    32    13    14    1
    33    13    37    1
    34    14    38    1
    35    14    39    1
    36    15    17   ar
    37    16    18    1
    38    16    40    1
    39    16    41    1
    40    17    18    1
    41    17    20   ar
    42    18    42    1
    43    18    43    1
    44    20    21   ar
    45    20    22   ar
    46    21    23   ar
    47    22    24   ar
    48    22    46    1
    49    23    25   ar
    50    23    47    1
    51    24    25   ar
    52    24    48    1
    53    25    49    1
    54    26    50    1
    55    26    51    1
    56    26    52    1
