@<TRIPOS>MOLECULE
IMPHY011667
 39 41 0 0 0
SMALL
GASTEIGER

@<TRIPOS>ATOM
      1 C           4.5037   -0.8508    0.0000 C.3     1  UNL1       -0.0106
      2 C           5.3302   -1.4146    0.0000 C.3     1  UNL1       -0.0247
      3 C           5.4047   -0.4169    0.0000 C.3     1  UNL1       -0.0283
      4 C           3.6027   -0.4169    0.0000 C.2     1  UNL1       -0.0633
      5 C           5.6272    0.5580    0.0000 C.3     1  UNL1       -0.0489
      6 C           3.3802    0.5580    0.0000 C.3     1  UNL1       -0.0165
      7 C           4.0037    1.3398    0.0000 C.3     1  UNL1       -0.0373
      8 C           6.3274   -1.4893    0.0000 C.3     1  UNL1       -0.0590
      9 C           4.7668   -2.2408    0.0000 C.3     1  UNL1       -0.0590
     10 C           5.0037    1.3398    0.0000 C.3     1  UNL1       -0.0496
     11 C           2.7480   -0.9246    0.0000 C.2     1  UNL1       -0.0728
     12 C           2.3899    0.6446    0.0000 C.3     1  UNL1       -0.0426
     13 C           2.0000   -0.2699    0.0000 C.3     1  UNL1       -0.0312
     14 C           3.5698    2.2408    0.0000 C.3     1  UNL1       -0.0619
     15 C           2.6567   -1.9204    0.0000 C.3     1  UNL1       -0.0435
     16 H           4.0786   -1.5869    0.0000 H       1  UNL1        0.0354
     17 H           6.2452   -0.5435    0.0000 H       1  UNL1        0.0312
     18 H           6.1858    0.2890    0.0000 H       1  UNL1        0.0268
     19 H           6.0138    1.0428    0.0000 H       1  UNL1        0.0268
     20 H           3.0451    1.3392    0.0000 H       1  UNL1        0.0348
     21 H           4.3336    1.8648    0.0000 H       1  UNL1        0.0304
     22 H           6.2810   -2.1076    0.0000 H       1  UNL1        0.0235
     23 H           6.9456   -1.5356    0.0000 H       1  UNL1        0.0235
     24 H           6.3737   -0.8710    0.0000 H       1  UNL1        0.0235
     25 H           4.2546   -1.8916    0.0000 H       1  UNL1        0.0235
     26 H           4.4176   -2.7531    0.0000 H       1  UNL1        0.0235
     27 H           5.2791   -2.5901    0.0000 H       1  UNL1        0.0235
     28 H           5.5623    1.6089    0.0000 H       1  UNL1        0.0268
     29 H           4.8657    1.9443    0.0000 H       1  UNL1        0.0268
     30 H           2.5085    1.2531    0.0000 H       1  UNL1        0.0274
     31 H           1.7972    0.8264    0.0000 H       1  UNL1        0.0274
     32 H           1.4584    0.0319    0.0000 H       1  UNL1        0.0310
     33 H           1.6430   -0.7768    0.0000 H       1  UNL1        0.0310
     34 H           4.1284    2.5098    0.0000 H       1  UNL1        0.0233
     35 H           3.3008    2.7994    0.0000 H       1  UNL1        0.0233
     36 H           3.0112    1.9718    0.0000 H       1  UNL1        0.0233
     37 H           2.0393   -1.8637    0.0000 H       1  UNL1        0.0274
     38 H           2.6000   -2.5378    0.0000 H       1  UNL1        0.0274
     39 H           3.2741   -1.9770    0.0000 H       1  UNL1        0.0274
@<TRIPOS>BOND
     1     1     2    1
     2     1     3    1
     3     1     4    1
     4     1    16    1
     5     2     3    1
     6     2     8    1
     7     2     9    1
     8     3     5    1
     9     3    17    1
    10     4     6    1
    11     4    11    2
    12     5    10    1
    13     5    18    1
    14     5    19    1
    15     6     7    1
    16     6    12    1
    17     6    20    1
    18     7    10    1
    19     7    14    1
    20     7    21    1
    21     8    22    1
    22     8    23    1
    23     8    24    1
    24     9    25    1
    25     9    26    1
    26     9    27    1
    27    10    28    1
    28    10    29    1
    29    11    13    1
    30    11    15    1
    31    12    13    1
    32    12    30    1
    33    12    31    1
    34    13    32    1
    35    13    33    1
    36    14    34    1
    37    14    35    1
    38    14    36    1
    39    15    37    1
    40    15    38    1
    41    15    39    1
