@<TRIPOS>MOLECULE
IMPHY004975
 68 71 0 0 0
SMALL
GASTEIGER

@<TRIPOS>ATOM
      1 O           9.3900   -0.2981    0.0000 O.3     1  UNL1       -0.4807
      2 O           7.6300    2.7366    0.0000 O.3     1  UNL1       -0.5057
      3 O           5.8980   -0.2634    0.0000 O.3     1  UNL1       -0.5055
      4 O           6.5820    3.6160    0.0000 O.3     1  UNL1       -0.5060
      5 O           3.9284    1.3893    0.0000 O.3     1  UNL1       -0.5055
      6 O           8.4960   -1.7634    0.0000 O.2     1  UNL1       -0.2870
      7 O           3.3268    4.8008    0.0000 O.3     1  UNL1       -0.5056
      8 O           2.3008    1.9817    0.0000 O.2     1  UNL1       -0.2921
      9 O           3.2999   -2.7634    0.0000 O.3     1  UNL1       -0.5033
     10 O           3.2999   -4.7634    0.0000 O.3     1  UNL1       -0.5033
     11 C          10.2961    0.2158    0.0000 C.3     1  UNL1        0.1235
     12 C           8.4960    0.2366    0.0000 C.ar    1  UNL1        0.1467
     13 C           8.4960    1.2366    0.0000 C.ar    1  UNL1        0.0591
     14 C           6.7640    1.2366    0.0000 C.ar    1  UNL1        0.0414
     15 C           5.8980    1.7366    0.0000 C.3     1  UNL1        0.0115
     16 C           7.6300    1.7366    0.0000 C.ar    1  UNL1        0.1344
     17 C          10.2961    1.2574    0.0000 C.2     1  UNL1       -0.0408
     18 C           7.6300   -0.2634    0.0000 C.ar    1  UNL1        0.1057
     19 C           6.7640    0.2366    0.0000 C.ar    1  UNL1        0.1382
     20 C           9.3900    1.7713    0.0000 C.2     1  UNL1       -0.0478
     21 C          11.2961    0.2119    0.0000 C.3     1  UNL1       -0.0215
     22 C          10.7927   -0.6522    0.0000 C.3     1  UNL1       -0.0215
     23 C           5.2552    2.5026    0.0000 C.ar    1  UNL1        0.0411
     24 C           5.5972    3.4423    0.0000 C.ar    1  UNL1        0.1302
     25 C           4.2704    2.3290    0.0000 C.ar    1  UNL1        0.1378
     26 C           7.6300   -1.2634    0.0000 C.2     1  UNL1        0.1931
     27 C           4.9544    4.2084    0.0000 C.ar    1  UNL1        0.0335
     28 C           3.6276    3.0950    0.0000 C.ar    1  UNL1        0.1005
     29 C           3.9696    4.0347    0.0000 C.ar    1  UNL1        0.1372
     30 C           5.2964    5.1481    0.0000 C.3     1  UNL1       -0.0327
     31 C           6.7640   -1.7634    0.0000 C.2     1  UNL1       -0.0135
     32 C           2.6428    2.9214    0.0000 C.2     1  UNL1        0.1671
     33 C           6.7640   -2.7634    0.0000 C.2     1  UNL1       -0.0508
     34 C           2.0000    3.6874    0.0000 C.3     1  UNL1       -0.0012
     35 C           5.8980   -3.2634    0.0000 C.ar    1  UNL1       -0.0212
     36 C           5.0320   -2.7634    0.0000 C.ar    1  UNL1       -0.0094
     37 C           5.8980   -4.2634    0.0000 C.ar    1  UNL1       -0.0509
     38 C           4.1659   -3.2634    0.0000 C.ar    1  UNL1        0.1588
     39 C           5.0320   -4.7634    0.0000 C.ar    1  UNL1       -0.0160
     40 C           4.1659   -4.2634    0.0000 C.ar    1  UNL1        0.1582
     41 H           5.3040    1.5588    0.0000 H       1  UNL1        0.0366
     42 H           6.2965    2.2116    0.0000 H       1  UNL1        0.0366
     43 H          10.8318    1.5695    0.0000 H       1  UNL1        0.0611
     44 H           9.3828    2.3912    0.0000 H       1  UNL1        0.0624
     45 H          11.2937   -0.4081    0.0000 H       1  UNL1        0.0271
     46 H          11.9161    0.2095    0.0000 H       1  UNL1        0.0271
     47 H          11.2984    0.8319    0.0000 H       1  UNL1        0.0271
     48 H          10.2546   -0.9601    0.0000 H       1  UNL1        0.0271
     49 H          11.1006   -1.1903    0.0000 H       1  UNL1        0.0271
     50 H          11.3308   -0.3442    0.0000 H       1  UNL1        0.0271
     51 H           7.0931    3.0466    0.0000 H       1  UNL1        0.2922
     52 H           5.3610    0.0466    0.0000 H       1  UNL1        0.2922
     53 H           5.8790    4.9360    0.0000 H       1  UNL1        0.0280
     54 H           5.5085    5.7307    0.0000 H       1  UNL1        0.0280
     55 H           4.7138    5.3601    0.0000 H       1  UNL1        0.0280
     56 H           6.2271   -1.4534    0.0000 H       1  UNL1        0.0656
     57 H           6.7941    4.1986    0.0000 H       1  UNL1        0.2922
     58 H           3.3178    1.2816    0.0000 H       1  UNL1        0.2922
     59 H           7.3009   -3.0734    0.0000 H       1  UNL1        0.0625
     60 H           2.4750    4.0860    0.0000 H       1  UNL1        0.0309
     61 H           1.6015    4.1624    0.0000 H       1  UNL1        0.0309
     62 H           1.5250    3.2889    0.0000 H       1  UNL1        0.0309
     63 H           3.5389    5.3834    0.0000 H       1  UNL1        0.2922
     64 H           5.0320   -2.1434    0.0000 H       1  UNL1        0.0661
     65 H           6.4349   -4.5734    0.0000 H       1  UNL1        0.0625
     66 H           5.0320   -5.3834    0.0000 H       1  UNL1        0.0655
     67 H           2.7630   -3.0734    0.0000 H       1  UNL1        0.2923
     68 H           3.2999   -5.3834    0.0000 H       1  UNL1        0.2923
@<TRIPOS>BOND
     1     1    11    1
     2     1    12    1
     3     2    16    1
     4     2    51    1
     5     3    19    1
     6     3    52    1
     7     4    24    1
     8     4    57    1
     9     5    25    1
    10     5    58    1
    11     6    26    2
    12     7    29    1
    13     7    63    1
    14     8    32    2
    15     9    38    1
    16     9    67    1
    17    10    40    1
    18    10    68    1
    19    11    17    1
    20    11    21    1
    21    11    22    1
    22    12    13   ar
    23    12    18   ar
    24    13    16   ar
    25    13    20    1
    26    14    15    1
    27    14    16   ar
    28    14    19   ar
    29    15    23    1
    30    15    41    1
    31    15    42    1
    32    17    20    2
    33    17    43    1
    34    18    19   ar
    35    18    26    1
    36    20    44    1
    37    21    45    1
    38    21    46    1
    39    21    47    1
    40    22    48    1
    41    22    49    1
    42    22    50    1
    43    23    24   ar
    44    23    25   ar
    45    24    27   ar
    46    25    28   ar
    47    26    31    1
    48    27    29   ar
    49    27    30    1
    50    28    29   ar
    51    28    32    1
    52    30    53    1
    53    30    54    1
    54    30    55    1
    55    31    33    2
    56    31    56    1
    57    32    34    1
    58    33    35    1
    59    33    59    1
    60    34    60    1
    61    34    61    1
    62    34    62    1
    63    35    36   ar
    64    35    37   ar
    65    36    38   ar
    66    36    64    1
    67    37    39   ar
    68    37    65    1
    69    38    40   ar
    70    39    40   ar
    71    39    66    1
