@<TRIPOS>MOLECULE
IMPHY006611
 84 86 0 0 0
SMALL
GASTEIGER

@<TRIPOS>ATOM
      1 O           4.8411   -0.8514    0.0000 O.2     1  UNL1       -0.5096
      2 O           6.5731    2.1486    0.0000 O.2     1  UNL1       -0.2907
      3 O           8.3331   -0.8861    0.0000 O.2     1  UNL1       -0.4872
      4 O           8.3215    2.1832    0.0000 O.2     1  UNL1       -0.2914
      5 O           4.8411   -3.8514    0.0000 O.3     1  UNL1       -0.4806
      6 O           6.5731   -3.8514    0.0000 O.2     1  UNL1       -0.2510
      7 C           3.2412    1.7734    0.0000 C.3     1  UNL1       -0.0255
      8 C           4.2071    1.5146    0.0000 C.3     1  UNL1       -0.0335
      9 C           3.5000    2.7394    0.0000 C.3     1  UNL1       -0.0147
     10 C           4.4659    2.4805    0.0000 C.3     1  UNL1       -0.0426
     11 C           4.7071    0.6486    0.0000 C.3     1  UNL1       -0.0297
     12 C           5.7071    0.6486    0.0000 C.3     1  UNL1        0.0945
     13 C           2.2753    2.0322    0.0000 C.3     1  UNL1       -0.0590
     14 C           2.9824    0.8075    0.0000 C.3     1  UNL1       -0.0590
     15 C           3.0000    3.6054    0.0000 C.2     1  UNL1       -0.0761
     16 C           5.2071    1.5146    0.0000 C.3     1  UNL1       -0.0148
     17 C           5.7071   -0.3514    0.0000 C.2     1  UNL1        0.1149
     18 C           6.5731    1.1486    0.0000 C.2     1  UNL1        0.1837
     19 C           3.5000    4.4714    0.0000 C.3     1  UNL1       -0.0438
     20 C           6.5731   -0.8514    0.0000 C.2     1  UNL1        0.0368
     21 C           7.4392    0.6486    0.0000 C.2     1  UNL1        0.1030
     22 C           2.0000    3.6054    0.0000 C.2     1  UNL1       -0.0994
     23 C           7.4392   -0.3514    0.0000 C.2     1  UNL1        0.1414
     24 C           6.5731   -1.8514    0.0000 C.3     1  UNL1        0.0008
     25 C           5.7071    2.3806    0.0000 C.2     1  UNL1       -0.0839
     26 C           8.3331    1.1832    0.0000 C.2     1  UNL1        0.1763
     27 C           9.2392    0.6694    0.0000 C.3     1  UNL1        0.0562
     28 C           9.2392   -0.3722    0.0000 C.3     1  UNL1        0.1070
     29 C           7.4392   -2.3514    0.0000 C.3     1  UNL1       -0.0457
     30 C           5.7071   -2.3514    0.0000 C.3     1  UNL1        0.0518
     31 C           5.2071    3.2467    0.0000 C.2     1  UNL1       -0.0796
     32 C          10.1033    1.1727    0.0000 C.3     1  UNL1       -0.0519
     33 C           7.4392   -3.3514    0.0000 C.3     1  UNL1       -0.0553
     34 C          10.1033   -0.8756    0.0000 C.3     1  UNL1       -0.0271
     35 C           5.7071    4.1127    0.0000 C.3     1  UNL1       -0.0440
     36 C           4.2071    3.2467    0.0000 C.3     1  UNL1       -0.0440
     37 C           5.7071   -3.3514    0.0000 C.2     1  UNL1        0.3053
     38 C           8.3052   -3.8514    0.0000 C.3     1  UNL1       -0.0653
     39 H           3.8297    1.0227    0.0000 H       1  UNL1        0.0307
     40 H           2.8853    2.6584    0.0000 H       1  UNL1        0.0351
     41 H           5.0648    2.3201    0.0000 H       1  UNL1        0.0274
     42 H           4.6264    3.0794    0.0000 H       1  UNL1        0.0274
     43 H           4.1245    0.4365    0.0000 H       1  UNL1        0.0282
     44 H           4.8148    0.0380    0.0000 H       1  UNL1        0.0282
     45 H           2.3835    0.9680    0.0000 H       1  UNL1        0.0235
     46 H           2.8219    0.2086    0.0000 H       1  UNL1        0.0235
     47 H           3.5812    0.6470    0.0000 H       1  UNL1        0.0235
     48 H           2.4357    2.6311    0.0000 H       1  UNL1        0.0235
     49 H           1.6764    2.1927    0.0000 H       1  UNL1        0.0235
     50 H           2.1148    1.4334    0.0000 H       1  UNL1        0.0235
     51 H           4.7322    1.9131    0.0000 H       1  UNL1        0.0321
     52 H           4.7322    1.1161    0.0000 H       1  UNL1        0.0321
     53 H           4.0369    4.1614    0.0000 H       1  UNL1        0.0274
     54 H           3.8100    5.0084    0.0000 H       1  UNL1        0.0274
     55 H           2.9631    4.7814    0.0000 H       1  UNL1        0.0274
     56 H           1.6900    4.1423    0.0000 H       1  UNL1        0.0534
     57 H           1.6900    3.0684    0.0000 H       1  UNL1        0.0534
     58 H           6.0362   -1.5414    0.0000 H       1  UNL1        0.0356
     59 H           6.3271    2.3806    0.0000 H       1  UNL1        0.0572
     60 H           4.8411   -1.4714    0.0000 H       1  UNL1        0.2917
     61 H           9.2356    1.2894    0.0000 H       1  UNL1        0.0414
     62 H           9.2356   -0.9922    0.0000 H       1  UNL1        0.0737
     63 H           8.0497   -2.4591    0.0000 H       1  UNL1        0.0271
     64 H           7.6512   -1.7688    0.0000 H       1  UNL1        0.0271
     65 H           5.4950   -1.7688    0.0000 H       1  UNL1        0.0383
     66 H           5.0965   -2.4591    0.0000 H       1  UNL1        0.0383
     67 H          10.4153    0.6370    0.0000 H       1  UNL1        0.0238
     68 H          10.6390    1.4848    0.0000 H       1  UNL1        0.0238
     69 H           9.7912    1.7085    0.0000 H       1  UNL1        0.0238
     70 H           6.8286   -3.2438    0.0000 H       1  UNL1        0.0263
     71 H           7.2271   -3.9340    0.0000 H       1  UNL1        0.0263
     72 H           9.7912   -1.4113    0.0000 H       1  UNL1        0.0265
     73 H          10.6390   -1.1876    0.0000 H       1  UNL1        0.0265
     74 H          10.4153   -0.3398    0.0000 H       1  UNL1        0.0265
     75 H           6.2440    3.8027    0.0000 H       1  UNL1        0.0274
     76 H           6.0171    4.6496    0.0000 H       1  UNL1        0.0274
     77 H           5.1702    4.4227    0.0000 H       1  UNL1        0.0274
     78 H           4.2071    3.8667    0.0000 H       1  UNL1        0.0274
     79 H           3.5871    3.2467    0.0000 H       1  UNL1        0.0274
     80 H           4.2071    2.6267    0.0000 H       1  UNL1        0.0274
     81 H           7.9952   -4.3884    0.0000 H       1  UNL1        0.0230
     82 H           8.8421   -4.1614    0.0000 H       1  UNL1        0.0230
     83 H           8.6152   -3.3145    0.0000 H       1  UNL1        0.0230
     84 H           4.8411   -4.4714    0.0000 H       1  UNL1        0.2951
@<TRIPOS>BOND
     1     1    17    1
     2     1    60    1
     3     2    18    2
     4     3    23    1
     5     3    28    1
     6     4    26    2
     7     5    37    1
     8     5    84    1
     9     6    37    2
    10     7     8    1
    11     7     9    1
    12     7    13    1
    13     7    14    1
    14     8    10    1
    15     8    11    1
    16     8    39    1
    17     9    10    1
    18     9    15    1
    19     9    40    1
    20    10    41    1
    21    10    42    1
    22    11    12    1
    23    11    43    1
    24    11    44    1
    25    12    16    1
    26    12    17    1
    27    12    18    1
    28    13    48    1
    29    13    49    1
    30    13    50    1
    31    14    45    1
    32    14    46    1
    33    14    47    1
    34    15    19    1
    35    15    22    2
    36    16    25    1
    37    16    51    1
    38    16    52    1
    39    17    20    2
    40    18    21    1
    41    19    53    1
    42    19    54    1
    43    19    55    1
    44    20    23    1
    45    20    24    1
    46    21    23    2
    47    21    26    1
    48    22    56    1
    49    22    57    1
    50    24    29    1
    51    24    30    1
    52    24    58    1
    53    25    31    2
    54    25    59    1
    55    26    27    1
    56    27    28    1
    57    27    32    1
    58    27    61    1
    59    28    34    1
    60    28    62    1
    61    29    33    1
    62    29    63    1
    63    29    64    1
    64    30    37    1
    65    30    65    1
    66    30    66    1
    67    31    35    1
    68    31    36    1
    69    32    67    1
    70    32    68    1
    71    32    69    1
    72    33    38    1
    73    33    70    1
    74    33    71    1
    75    34    72    1
    76    34    73    1
    77    34    74    1
    78    35    75    1
    79    35    76    1
    80    35    77    1
    81    36    78    1
    82    36    79    1
    83    36    80    1
    84    38    81    1
    85    38    82    1
    86    38    83    1
