@<TRIPOS>MOLECULE
IMPHY016112
 42 41 0 0 0
SMALL
GASTEIGER

@<TRIPOS>ATOM
      1 O           2.5369   -1.5000    0.0000 O.3     1  UNL1       -0.4806
      2 O           3.4030   -3.0000    0.0000 O.2     1  UNL1       -0.2510
      3 C          10.3312    1.0000    0.0000 C.3     1  UNL1       -0.0528
      4 C          10.3312   -0.0000    0.0000 C.3     1  UNL1       -0.0496
      5 C           6.8671   -2.0000    0.0000 C.3     1  UNL1       -0.0496
      6 C          11.1972    1.5000    0.0000 C.3     1  UNL1       -0.0533
      7 C           6.0010   -1.5000    0.0000 C.3     1  UNL1       -0.0523
      8 C           9.4651   -0.5000    0.0000 C.3     1  UNL1       -0.0348
      9 C           7.7331   -1.5000    0.0000 C.3     1  UNL1       -0.0348
     10 C           5.1350   -2.0000    0.0000 C.3     1  UNL1       -0.0430
     11 C          11.1972    2.5000    0.0000 C.3     1  UNL1       -0.0559
     12 C           9.4651   -1.5000    0.0000 C.2     1  UNL1       -0.0879
     13 C           8.5991   -2.0000    0.0000 C.2     1  UNL1       -0.0879
     14 C           4.2690   -1.5000    0.0000 C.3     1  UNL1        0.0448
     15 C          12.0632    3.0000    0.0000 C.3     1  UNL1       -0.0653
     16 C           3.4030   -2.0000    0.0000 C.2     1  UNL1        0.3047
     17 H          10.1191    1.5826    0.0000 H       1  UNL1        0.0265
     18 H           9.7206    0.8923    0.0000 H       1  UNL1        0.0265
     19 H          10.5432   -0.5826    0.0000 H       1  UNL1        0.0268
     20 H          10.9417    0.1077    0.0000 H       1  UNL1        0.0268
     21 H           6.4685   -2.4750    0.0000 H       1  UNL1        0.0268
     22 H           7.2656   -2.4750    0.0000 H       1  UNL1        0.0268
     23 H          11.4092    0.9174    0.0000 H       1  UNL1        0.0265
     24 H          11.8078    1.6077    0.0000 H       1  UNL1        0.0265
     25 H           6.3996   -1.0250    0.0000 H       1  UNL1        0.0265
     26 H           5.6025   -1.0250    0.0000 H       1  UNL1        0.0265
     27 H           9.2531    0.0826    0.0000 H       1  UNL1        0.0307
     28 H           8.8546   -0.6077    0.0000 H       1  UNL1        0.0307
     29 H           8.1316   -1.0250    0.0000 H       1  UNL1        0.0307
     30 H           7.3346   -1.0250    0.0000 H       1  UNL1        0.0307
     31 H           4.7365   -2.4750    0.0000 H       1  UNL1        0.0270
     32 H           5.5335   -2.4750    0.0000 H       1  UNL1        0.0270
     33 H          10.9851    3.0826    0.0000 H       1  UNL1        0.0263
     34 H          10.5866    2.3923    0.0000 H       1  UNL1        0.0263
     35 H          10.0021   -1.8100    0.0000 H       1  UNL1        0.0569
     36 H           8.5991   -2.6200    0.0000 H       1  UNL1        0.0569
     37 H           4.6675   -1.0250    0.0000 H       1  UNL1        0.0377
     38 H           3.8705   -1.0250    0.0000 H       1  UNL1        0.0377
     39 H          12.3732    2.4631    0.0000 H       1  UNL1        0.0230
     40 H          12.6002    3.3100    0.0000 H       1  UNL1        0.0230
     41 H          11.7532    3.5369    0.0000 H       1  UNL1        0.0230
     42 H           2.0000   -1.8100    0.0000 H       1  UNL1        0.2951
@<TRIPOS>BOND
     1     1    16    1
     2     1    42    1
     3     2    16    2
     4     3     4    1
     5     3     6    1
     6     3    17    1
     7     3    18    1
     8     4     8    1
     9     4    19    1
    10     4    20    1
    11     5     7    1
    12     5     9    1
    13     5    21    1
    14     5    22    1
    15     6    11    1
    16     6    23    1
    17     6    24    1
    18     7    10    1
    19     7    25    1
    20     7    26    1
    21     8    12    1
    22     8    27    1
    23     8    28    1
    24     9    13    1
    25     9    29    1
    26     9    30    1
    27    10    14    1
    28    10    31    1
    29    10    32    1
    30    11    15    1
    31    11    33    1
    32    11    34    1
    33    12    13    2
    34    12    35    1
    35    13    36    1
    36    14    16    1
    37    14    37    1
    38    14    38    1
    39    15    39    1
    40    15    40    1
    41    15    41    1
