@<TRIPOS>MOLECULE
IMPHY008206
 51 55 0 0 0
SMALL
GASTEIGER

@<TRIPOS>ATOM
      1 O           2.9840   -1.4766    0.0000 O.3     1  UNL1       -0.3651
      2 O           2.0000    1.6678    0.0000 O.3     1  UNL1       -0.4605
      3 O           5.2897   -0.4526    0.0000 O.3     1  UNL1       -0.3851
      4 O           2.0186    3.4253    0.0000 O.2     1  UNL1       -0.2502
      5 O           7.5524   -2.9253    0.0000 O.2     1  UNL1       -0.4708
      6 C           4.3500    0.8894    0.0000 C.3     1  UNL1        0.0067
      7 C           3.4840    1.3894    0.0000 C.3     1  UNL1        0.0198
      8 C           4.3500   -0.1106    0.0000 C.3     1  UNL1        0.1031
      9 C           3.4840   -0.6106    0.0000 C.3     1  UNL1        0.1251
     10 C           2.6179    0.8894    0.0000 C.3     1  UNL1        0.1103
     11 C           3.4679    2.4309    0.0000 C.3     1  UNL1        0.0717
     12 C           2.6179   -0.1106    0.0000 C.3     1  UNL1        0.0187
     13 C           5.2600    1.3963    0.0000 C.3     1  UNL1       -0.0445
     14 C           3.9840   -1.4766    0.0000 C.3     1  UNL1        0.0805
     15 C           4.3659    2.9587    0.0000 C.3     1  UNL1       -0.0371
     16 C           4.8500   -0.9766    0.0000 C.3     1  UNL1       -0.0166
     17 C           5.2680    2.4379    0.0000 C.3     1  UNL1       -0.0515
     18 C           5.3348    0.7158    0.0000 C.3     1  UNL1       -0.0564
     19 C           2.4799    2.5381    0.0000 C.2     1  UNL1        0.3137
     20 C           2.9579    3.2911    0.0000 C.3     1  UNL1       -0.0490
     21 C           5.8500   -0.9766    0.0000 C.3     1  UNL1       -0.0220
     22 C           6.3500   -1.8426    0.0000 C.ar    1  UNL1       -0.0096
     23 C           5.9432   -2.7562    0.0000 C.ar    1  UNL1       -0.0208
     24 C           7.3445   -1.9472    0.0000 C.ar    1  UNL1        0.0948
     25 C           6.6864   -3.4253    0.0000 C.ar    1  UNL1        0.0919
     26 H           4.2201    1.8144    0.0000 H       1  UNL1        0.0353
     27 H           1.8153    0.6096    0.0000 H       1  UNL1        0.0738
     28 H           2.0073   -0.0029    0.0000 H       1  UNL1        0.0331
     29 H           2.4059   -0.6932    0.0000 H       1  UNL1        0.0331
     30 H           5.4645    0.8110    0.0000 H       1  UNL1        0.0272
     31 H           5.8716    1.4976    0.0000 H       1  UNL1        0.0272
     32 H           4.0916   -2.0872    0.0000 H       1  UNL1        0.0590
     33 H           4.5666   -1.2646    0.0000 H       1  UNL1        0.0590
     34 H           4.7632    3.4346    0.0000 H       1  UNL1        0.0276
     35 H           3.9650    3.4316    0.0000 H       1  UNL1        0.0276
     36 H           4.2674   -1.1887    0.0000 H       1  UNL1        0.0297
     37 H           4.9576   -1.5872    0.0000 H       1  UNL1        0.0297
     38 H           5.8780    2.3271    0.0000 H       1  UNL1        0.0266
     39 H           5.4816    3.0199    0.0000 H       1  UNL1        0.0266
     40 H           5.2271    0.1052    0.0000 H       1  UNL1        0.0236
     41 H           5.9454    0.6081    0.0000 H       1  UNL1        0.0236
     42 H           5.4424    1.3263    0.0000 H       1  UNL1        0.0236
     43 H           3.4912    3.6073    0.0000 H       1  UNL1        0.0240
     44 H           2.6417    3.8244    0.0000 H       1  UNL1        0.0240
     45 H           2.4246    2.9749    0.0000 H       1  UNL1        0.0240
     46 H           5.7646   -0.0541    0.0000 H       1  UNL1        0.2103
     47 H           6.4326   -0.7646    0.0000 H       1  UNL1        0.0315
     48 H           5.7423   -0.3660    0.0000 H       1  UNL1        0.0315
     49 H           5.3368   -2.8851    0.0000 H       1  UNL1        0.0652
     50 H           7.7594   -1.4864    0.0000 H       1  UNL1        0.1032
     51 H           6.6216   -4.0419    0.0000 H       1  UNL1        0.1029
@<TRIPOS>BOND
     1     9     1    1
     2     1    14    1
     3     2    10    1
     4     2    19    1
     5     8     3    1
     6     3    46    1
     7     4    19    2
     8     5    24   ar
     9     5    25   ar
    10     6     7    1
    11     6     8    1
    12     6    13    1
    13     6    18    1
    14     7    10    1
    15     7    11    1
    16     7    26    1
    17     8     9    1
    18     8    16    1
    19     9    12    1
    20     9    14    1
    21    10    12    1
    22    10    27    1
    23    11    15    1
    24    11    19    1
    25    11    20    1
    26    12    28    1
    27    12    29    1
    28    13    17    1
    29    13    30    1
    30    13    31    1
    31    14    32    1
    32    14    33    1
    33    15    17    1
    34    15    34    1
    35    15    35    1
    36    16    21    1
    37    16    36    1
    38    16    37    1
    39    17    38    1
    40    17    39    1
    41    18    40    1
    42    18    41    1
    43    18    42    1
    44    20    43    1
    45    20    44    1
    46    20    45    1
    47    21    22    1
    48    21    47    1
    49    21    48    1
    50    22    23   ar
    51    22    24   ar
    52    23    25   ar
    53    23    49    1
    54    24    50    1
    55    25    51    1
