@<TRIPOS>MOLECULE
IMPHY012679
 31 34 0 0 0
SMALL
GASTEIGER

@<TRIPOS>ATOM
      1 O           2.5247   -2.0572    0.0000 O.3     1  UNL1       -0.4914
      2 O           2.5405   -0.0089    0.0000 O.3     1  UNL1       -0.5029
      3 O           6.6421   -2.5480    0.0000 O.2     1  UNL1       -0.2698
      4 N           6.6606   -0.7904    0.0000 N.am    1  UNL1       -0.2809
      5 C           5.1767   -0.5121    0.0000 C.ar    1  UNL1        0.0198
      6 C           4.3107   -0.0121    0.0000 C.ar    1  UNL1        0.0374
      7 C           6.0427   -0.0121    0.0000 C.ar    1  UNL1        0.0429
      8 C           5.1928   -1.5536    0.0000 C.ar    1  UNL1        0.0502
      9 C           4.3107    0.9879    0.0000 C.ar    1  UNL1       -0.0064
     10 C           5.1767    1.4879    0.0000 C.ar    1  UNL1       -0.0154
     11 C           6.0427    0.9879    0.0000 C.ar    1  UNL1       -0.0321
     12 C           3.4007   -0.5189    0.0000 C.ar    1  UNL1        0.1670
     13 C           6.1808   -1.6607    0.0000 C.2     1  UNL1        0.2490
     14 C           4.2947   -2.0813    0.0000 C.ar    1  UNL1       -0.0035
     15 C           3.3926   -1.5605    0.0000 C.ar    1  UNL1        0.1626
     16 C           3.4007    1.4948    0.0000 C.ar    1  UNL1       -0.0533
     17 C           5.1928    2.5294    0.0000 C.ar    1  UNL1       -0.0540
     18 C           3.3926    2.5364    0.0000 C.ar    1  UNL1       -0.0611
     19 C           4.2947    3.0572    0.0000 C.ar    1  UNL1       -0.0612
     20 C           2.5208   -3.0572    0.0000 C.3     1  UNL1        0.0790
     21 H           6.5797    1.2979    0.0000 H       1  UNL1        0.0642
     22 H           7.2785   -0.7387    0.0000 H       1  UNL1        0.1552
     23 H           4.2971   -2.7013    0.0000 H       1  UNL1        0.0663
     24 H           2.8674    1.1786    0.0000 H       1  UNL1        0.0624
     25 H           5.7332    2.8332    0.0000 H       1  UNL1        0.0624
     26 H           2.8545    2.8443    0.0000 H       1  UNL1        0.0618
     27 H           4.2971    3.6772    0.0000 H       1  UNL1        0.0618
     28 H           2.0000   -0.3127    0.0000 H       1  UNL1        0.2923
     29 H           1.9008   -3.0548    0.0000 H       1  UNL1        0.0660
     30 H           2.5184   -3.6772    0.0000 H       1  UNL1        0.0660
     31 H           3.1408   -3.0596    0.0000 H       1  UNL1        0.0660
@<TRIPOS>BOND
     1     1    15    1
     2     1    20    1
     3     2    12    1
     4     2    28    1
     5     3    13    2
     6     4     7    1
     7     4    13   am
     8     4    22    1
     9     5     6   ar
    10     5     7   ar
    11     5     8   ar
    12     6     9   ar
    13     6    12   ar
    14     7    11   ar
    15     8    13    1
    16     8    14   ar
    17     9    10   ar
    18     9    16   ar
    19    10    11   ar
    20    10    17   ar
    21    11    21    1
    22    12    15   ar
    23    14    15   ar
    24    14    23    1
    25    16    18   ar
    26    16    24    1
    27    17    19   ar
    28    17    25    1
    29    18    19   ar
    30    18    26    1
    31    19    27    1
    32    20    29    1
    33    20    30    1
    34    20    31    1
