@<TRIPOS>MOLECULE
IMPHY017721
 21 21 0 0 0
SMALL
GASTEIGER

@<TRIPOS>ATOM
      1 O           3.7320    1.4400    0.0000 O.3     1  UNL1       -0.4804
      2 O           2.0000    1.4400    0.0000 O.2     1  UNL1       -0.2507
      3 C           2.8660   -0.0600    0.0000 C.3     1  UNL1        0.0563
      4 C           2.0000   -0.5600    0.0000 C.3     1  UNL1       -0.0401
      5 C           3.7320   -0.5600    0.0000 C.3     1  UNL1       -0.0401
      6 C           2.0000   -1.5600    0.0000 C.3     1  UNL1       -0.0523
      7 C           3.7320   -1.5600    0.0000 C.3     1  UNL1       -0.0523
      8 C           2.8660   -2.0600    0.0000 C.3     1  UNL1       -0.0530
      9 C           2.8660    0.9400    0.0000 C.2     1  UNL1        0.3078
     10 H           3.4030    0.2500    0.0000 H       1  UNL1        0.0413
     11 H           1.7880    0.0226    0.0000 H       1  UNL1        0.0273
     12 H           1.3894   -0.6677    0.0000 H       1  UNL1        0.0273
     13 H           4.3426   -0.6677    0.0000 H       1  UNL1        0.0273
     14 H           3.9441    0.0226    0.0000 H       1  UNL1        0.0273
     15 H           1.3894   -1.4523    0.0000 H       1  UNL1        0.0265
     16 H           1.7880   -2.1426    0.0000 H       1  UNL1        0.0265
     17 H           3.9441   -2.1426    0.0000 H       1  UNL1        0.0265
     18 H           4.3426   -1.4523    0.0000 H       1  UNL1        0.0265
     19 H           2.4675   -2.5349    0.0000 H       1  UNL1        0.0265
     20 H           3.2646   -2.5349    0.0000 H       1  UNL1        0.0265
     21 H           3.7320    2.0600    0.0000 H       1  UNL1        0.2951
@<TRIPOS>BOND
     1     1     9    1
     2     1    21    1
     3     2     9    2
     4     3     4    1
     5     3     5    1
     6     3     9    1
     7     3    10    1
     8     4     6    1
     9     4    11    1
    10     4    12    1
    11     5     7    1
    12     5    13    1
    13     5    14    1
    14     6     8    1
    15     6    15    1
    16     6    16    1
    17     7     8    1
    18     7    17    1
    19     7    18    1
    20     8    19    1
    21     8    20    1
