@<TRIPOS>MOLECULE
IMPHY017638
 22 21 0 0 0
SMALL
GASTEIGER

@<TRIPOS>ATOM
      1 S           4.5981    0.2500    0.0000 S.3     1  UNL1       -0.1564
      2 C           2.8660    0.2500    0.0000 C.3     1  UNL1       -0.0377
      3 C           3.7320    0.7500    0.0000 C.3     1  UNL1       -0.0037
      4 C           2.0000    0.7500    0.0000 C.3     1  UNL1       -0.0619
      5 C           2.8660   -0.7500    0.0000 C.3     1  UNL1       -0.0619
      6 C           5.4641    0.7500    0.0000 C.3     1  UNL1        0.0115
      7 C           6.3301    0.2500    0.0000 C.2     1  UNL1       -0.0813
      8 C           7.1962    0.7500    0.0000 C.2     1  UNL1       -0.1019
      9 H           2.8660    0.8700    0.0000 H       1  UNL1        0.0303
     10 H           4.1306    1.2250    0.0000 H       1  UNL1        0.0379
     11 H           3.3335    1.2250    0.0000 H       1  UNL1        0.0379
     12 H           2.3100    1.2869    0.0000 H       1  UNL1        0.0233
     13 H           1.4631    1.0600    0.0000 H       1  UNL1        0.0233
     14 H           1.6900    0.2131    0.0000 H       1  UNL1        0.0233
     15 H           2.2460   -0.7500    0.0000 H       1  UNL1        0.0233
     16 H           2.8660   -1.3700    0.0000 H       1  UNL1        0.0233
     17 H           3.4860   -0.7500    0.0000 H       1  UNL1        0.0233
     18 H           5.8626    1.2250    0.0000 H       1  UNL1        0.0419
     19 H           5.0656    1.2250    0.0000 H       1  UNL1        0.0419
     20 H           6.3301   -0.3700    0.0000 H       1  UNL1        0.0574
     21 H           7.7331    0.4400    0.0000 H       1  UNL1        0.0532
     22 H           7.1962    1.3700    0.0000 H       1  UNL1        0.0532
@<TRIPOS>BOND
     1     1     3    1
     2     1     6    1
     3     2     3    1
     4     2     4    1
     5     2     5    1
     6     2     9    1
     7     3    10    1
     8     3    11    1
     9     4    12    1
    10     4    13    1
    11     4    14    1
    12     5    15    1
    13     5    16    1
    14     5    17    1
    15     6     7    1
    16     6    18    1
    17     6    19    1
    18     7     8    2
    19     7    20    1
    20     8    21    1
    21     8    22    1
