@<TRIPOS>MOLECULE
IMPHY013174
 48 47 0 0 0
SMALL
GASTEIGER

@<TRIPOS>ATOM
      1 O           2.5369   -2.3170    0.0000 O.3     1  UNL1       -0.3876
      2 O           6.0010   -0.3170    0.0000 O.2     1  UNL1       -0.2708
      3 N           5.1350   -1.8170    0.0000 N.am    1  UNL1       -0.3091
      4 C           3.4030   -1.8170    0.0000 C.3     1  UNL1        0.0759
      5 C           4.2690   -1.3170    0.0000 C.3     1  UNL1        0.0402
      6 C           2.9030   -0.9510    0.0000 C.3     1  UNL1       -0.0349
      7 C           3.9030   -2.6830    0.0000 C.3     1  UNL1       -0.0349
      8 C           6.0010   -1.3170    0.0000 C.2     1  UNL1        0.2370
      9 C          10.3312   -1.8170    0.0000 C.3     1  UNL1       -0.0310
     10 C           6.8671   -1.8170    0.0000 C.2     1  UNL1        0.0001
     11 C          11.1972   -1.3170    0.0000 C.3     1  UNL1       -0.0310
     12 C           9.4651   -1.3170    0.0000 C.2     1  UNL1       -0.0837
     13 C           7.7331   -1.3170    0.0000 C.2     1  UNL1       -0.0571
     14 C           8.5991   -1.8170    0.0000 C.2     1  UNL1       -0.0655
     15 C          12.0632   -1.8170    0.0000 C.2     1  UNL1       -0.0837
     16 C          12.9292   -1.3170    0.0000 C.2     1  UNL1       -0.0657
     17 C          12.9292   -0.3170    0.0000 C.2     1  UNL1       -0.0621
     18 C          13.7953    0.1830    0.0000 C.2     1  UNL1       -0.0621
     19 C          13.7953    1.1830    0.0000 C.2     1  UNL1       -0.0659
     20 C          14.6613    1.6830    0.0000 C.2     1  UNL1       -0.0871
     21 C          14.6613    2.6830    0.0000 C.3     1  UNL1       -0.0465
     22 H           4.6675   -0.8420    0.0000 H       1  UNL1        0.0490
     23 H           3.8705   -0.8420    0.0000 H       1  UNL1        0.0490
     24 H           3.4399   -0.6410    0.0000 H       1  UNL1        0.0258
     25 H           2.5930   -0.4140    0.0000 H       1  UNL1        0.0258
     26 H           2.3660   -1.2610    0.0000 H       1  UNL1        0.0258
     27 H           3.3660   -2.9930    0.0000 H       1  UNL1        0.0258
     28 H           4.2130   -3.2200    0.0000 H       1  UNL1        0.0258
     29 H           4.4399   -2.3730    0.0000 H       1  UNL1        0.0258
     30 H           5.1350   -2.4370    0.0000 H       1  UNL1        0.1491
     31 H           2.0000   -2.0070    0.0000 H       1  UNL1        0.2102
     32 H           9.9326   -2.2919    0.0000 H       1  UNL1        0.0310
     33 H          10.7297   -2.2919    0.0000 H       1  UNL1        0.0310
     34 H           6.8671   -2.4370    0.0000 H       1  UNL1        0.0669
     35 H          11.5957   -0.8420    0.0000 H       1  UNL1        0.0310
     36 H          10.7987   -0.8420    0.0000 H       1  UNL1        0.0310
     37 H           9.4651   -0.6970    0.0000 H       1  UNL1        0.0572
     38 H           7.7331   -0.6970    0.0000 H       1  UNL1        0.0619
     39 H           8.5991   -2.4370    0.0000 H       1  UNL1        0.0614
     40 H          12.0632   -2.4370    0.0000 H       1  UNL1        0.0572
     41 H          13.4662   -1.6270    0.0000 H       1  UNL1        0.0614
     42 H          12.3923   -0.0070    0.0000 H       1  UNL1        0.0617
     43 H          14.3322   -0.1270    0.0000 H       1  UNL1        0.0617
     44 H          13.2583    1.4930    0.0000 H       1  UNL1        0.0614
     45 H          15.1982    1.3730    0.0000 H       1  UNL1        0.0569
     46 H          15.2813    2.6830    0.0000 H       1  UNL1        0.0272
     47 H          14.6613    3.3030    0.0000 H       1  UNL1        0.0272
     48 H          14.0413    2.6830    0.0000 H       1  UNL1        0.0272
@<TRIPOS>BOND
     1     1     4    1
     2     1    31    1
     3     2     8    2
     4     3     5    1
     5     3     8   am
     6     3    30    1
     7     4     5    1
     8     4     6    1
     9     4     7    1
    10     5    22    1
    11     5    23    1
    12     6    24    1
    13     6    25    1
    14     6    26    1
    15     7    27    1
    16     7    28    1
    17     7    29    1
    18     8    10    1
    19     9    11    1
    20     9    12    1
    21     9    32    1
    22     9    33    1
    23    10    13    2
    24    10    34    1
    25    11    15    1
    26    11    35    1
    27    11    36    1
    28    12    14    2
    29    12    37    1
    30    13    14    1
    31    13    38    1
    32    14    39    1
    33    15    16    2
    34    15    40    1
    35    16    17    1
    36    16    41    1
    37    17    18    2
    38    17    42    1
    39    18    19    1
    40    18    43    1
    41    19    20    2
    42    19    44    1
    43    20    21    1
    44    20    45    1
    45    21    46    1
    46    21    47    1
    47    21    48    1
