@<TRIPOS>MOLECULE
IMPHY007081
 63 62 0 0 0
SMALL
GASTEIGER

@<TRIPOS>ATOM
      1 O           9.7942   -0.5950    0.0000 O.3     1  UNL1       -0.3918
      2 O          19.3205    0.9050    0.0000 O.3     1  UNL1       -0.4806
      3 O          18.4545   -0.5950    0.0000 O.2     1  UNL1       -0.2510
      4 C           9.7942    0.4050    0.0000 C.3     1  UNL1        0.0553
      5 C          10.6603    0.9050    0.0000 C.3     1  UNL1       -0.0269
      6 C           8.9282    0.9050    0.0000 C.3     1  UNL1       -0.0269
      7 C          11.5263    0.4050    0.0000 C.3     1  UNL1       -0.0507
      8 C           8.0622    0.4050    0.0000 C.3     1  UNL1       -0.0507
      9 C          12.3923    0.9050    0.0000 C.3     1  UNL1       -0.0530
     10 C           7.1962    0.9050    0.0000 C.3     1  UNL1       -0.0530
     11 C          13.2583    0.4050    0.0000 C.3     1  UNL1       -0.0531
     12 C           6.3301    0.4050    0.0000 C.3     1  UNL1       -0.0531
     13 C          14.1244    0.9050    0.0000 C.3     1  UNL1       -0.0531
     14 C           5.4641    0.9050    0.0000 C.3     1  UNL1       -0.0531
     15 C          14.9904    0.4050    0.0000 C.3     1  UNL1       -0.0530
     16 C           4.5981    0.4050    0.0000 C.3     1  UNL1       -0.0531
     17 C          15.8564    0.9050    0.0000 C.3     1  UNL1       -0.0526
     18 C           3.7320    0.9050    0.0000 C.3     1  UNL1       -0.0533
     19 C          16.7224    0.4050    0.0000 C.3     1  UNL1       -0.0430
     20 C           2.8660    0.4050    0.0000 C.3     1  UNL1       -0.0559
     21 C          17.5885    0.9050    0.0000 C.3     1  UNL1        0.0448
     22 C           2.0000    0.9050    0.0000 C.3     1  UNL1       -0.0653
     23 C          18.4545    0.4050    0.0000 C.2     1  UNL1        0.3047
     24 H           9.2573    0.0950    0.0000 H       1  UNL1        0.0593
     25 H          11.0588    1.3800    0.0000 H       1  UNL1        0.0290
     26 H          10.2617    1.3800    0.0000 H       1  UNL1        0.0290
     27 H           9.3267    1.3800    0.0000 H       1  UNL1        0.0290
     28 H           8.5297    1.3800    0.0000 H       1  UNL1        0.0290
     29 H          11.1278   -0.0699    0.0000 H       1  UNL1        0.0266
     30 H          11.9248   -0.0699    0.0000 H       1  UNL1        0.0266
     31 H           7.6636   -0.0699    0.0000 H       1  UNL1        0.0266
     32 H           8.4607   -0.0699    0.0000 H       1  UNL1        0.0266
     33 H          12.7908    1.3800    0.0000 H       1  UNL1        0.0265
     34 H          11.9938    1.3800    0.0000 H       1  UNL1        0.0265
     35 H           7.5947    1.3800    0.0000 H       1  UNL1        0.0265
     36 H           6.7976    1.3800    0.0000 H       1  UNL1        0.0265
     37 H          12.8598   -0.0699    0.0000 H       1  UNL1        0.0265
     38 H          13.6569   -0.0699    0.0000 H       1  UNL1        0.0265
     39 H           5.9316   -0.0699    0.0000 H       1  UNL1        0.0265
     40 H           6.7287   -0.0699    0.0000 H       1  UNL1        0.0265
     41 H          14.5229    1.3800    0.0000 H       1  UNL1        0.0265
     42 H          13.7258    1.3800    0.0000 H       1  UNL1        0.0265
     43 H           5.8626    1.3800    0.0000 H       1  UNL1        0.0265
     44 H           5.0656    1.3800    0.0000 H       1  UNL1        0.0265
     45 H          14.5919   -0.0699    0.0000 H       1  UNL1        0.0265
     46 H          15.3889   -0.0699    0.0000 H       1  UNL1        0.0265
     47 H           4.1996   -0.0699    0.0000 H       1  UNL1        0.0265
     48 H           4.9966   -0.0699    0.0000 H       1  UNL1        0.0265
     49 H          16.2549    1.3800    0.0000 H       1  UNL1        0.0265
     50 H          15.4579    1.3800    0.0000 H       1  UNL1        0.0265
     51 H           4.1306    1.3800    0.0000 H       1  UNL1        0.0265
     52 H           3.3335    1.3800    0.0000 H       1  UNL1        0.0265
     53 H          16.3239   -0.0699    0.0000 H       1  UNL1        0.0270
     54 H          17.1210   -0.0699    0.0000 H       1  UNL1        0.0270
     55 H           9.2573   -0.9050    0.0000 H       1  UNL1        0.2098
     56 H           2.4675   -0.0699    0.0000 H       1  UNL1        0.0263
     57 H           3.2646   -0.0699    0.0000 H       1  UNL1        0.0263
     58 H          17.9870    1.3800    0.0000 H       1  UNL1        0.0377
     59 H          17.1899    1.3800    0.0000 H       1  UNL1        0.0377
     60 H           2.3100    1.4419    0.0000 H       1  UNL1        0.0230
     61 H           1.4631    1.2150    0.0000 H       1  UNL1        0.0230
     62 H           1.6900    0.3681    0.0000 H       1  UNL1        0.0230
     63 H          19.8574    0.5950    0.0000 H       1  UNL1        0.2951
@<TRIPOS>BOND
     1     1     4    1
     2     1    55    1
     3     2    23    1
     4     2    63    1
     5     3    23    2
     6     4     5    1
     7     4     6    1
     8     4    24    1
     9     5     7    1
    10     5    25    1
    11     5    26    1
    12     6     8    1
    13     6    27    1
    14     6    28    1
    15     7     9    1
    16     7    29    1
    17     7    30    1
    18     8    10    1
    19     8    31    1
    20     8    32    1
    21     9    11    1
    22     9    33    1
    23     9    34    1
    24    10    12    1
    25    10    35    1
    26    10    36    1
    27    11    13    1
    28    11    37    1
    29    11    38    1
    30    12    14    1
    31    12    39    1
    32    12    40    1
    33    13    15    1
    34    13    41    1
    35    13    42    1
    36    14    16    1
    37    14    43    1
    38    14    44    1
    39    15    17    1
    40    15    45    1
    41    15    46    1
    42    16    18    1
    43    16    47    1
    44    16    48    1
    45    17    19    1
    46    17    49    1
    47    17    50    1
    48    18    20    1
    49    18    51    1
    50    18    52    1
    51    19    21    1
    52    19    53    1
    53    19    54    1
    54    20    22    1
    55    20    56    1
    56    20    57    1
    57    21    23    1
    58    21    58    1
    59    21    59    1
    60    22    60    1
    61    22    61    1
    62    22    62    1
