@<TRIPOS>MOLECULE
IMPHY006848
 32 36 0 0 0
SMALL
GASTEIGER

@<TRIPOS>ATOM
      1 O          12.1683   -1.9226    0.0000 O.2     1  UNL1       -0.4765
      2 C          11.0610   -1.2777    0.0000 C.3     1  UNL1        0.1636
      3 C           9.9537   -1.9226    0.0000 C.3     1  UNL1        0.0331
      4 C           8.8463   -1.2777    0.0000 C.3     1  UNL1        0.0712
      5 N           7.7390   -1.9226    0.0000 N.3     1  UNL1       -0.2779
      6 C           6.6317   -1.2777    0.0000 C.3     1  UNL1        0.0726
      7 C           5.5244   -1.9226    0.0000 C.3     1  UNL1        0.0311
      8 C           5.5244   -3.2003    0.0000 C.3     1  UNL1        0.1009
      9 C           7.7390   -3.2003    0.0000 C.3     1  UNL1        0.0378
     10 C           8.8463   -3.8330    0.0000 C.3     1  UNL1        0.0117
     11 C           9.9537   -3.2003    0.0000 C.3     1  UNL1        0.0113
     12 C          11.0610   -3.8330    0.0000 C.2     1  UNL1        0.0859
     13 C          12.1683   -3.2003    0.0000 C.2     1  UNL1        0.1737
     14 C           5.5244   -4.4779    0.0000 C.2     1  UNL1        0.2494
     15 N           4.4171   -5.1228    0.0000 N.am    1  UNL1       -0.1792
     16 C           3.3219   -4.4779    0.0000 C.ar    1  UNL1        0.0700
     17 C           3.3219   -3.2003    0.0000 C.ar    1  UNL1        0.0048
     18 C           2.2146   -2.5675    0.0000 C.ar    1  UNL1        0.0344
     19 C           1.1073   -3.2003    0.0000 C.ar    1  UNL1        0.1385
     20 C           1.1073   -4.4779    0.0000 C.ar    1  UNL1        0.0382
     21 C           2.2146   -5.1228    0.0000 C.ar    1  UNL1        0.0194
     22 C          11.0610    0.0000    0.0000 C.3     1  UNL1        0.0469
     23 C          11.0610   -5.1107    0.0000 C.2     1  UNL1        0.3400
     24 O          12.1683   -5.7556    0.0000 O.2     1  UNL1       -0.2451
     25 O           6.6317   -5.1228    0.0000 O.2     1  UNL1       -0.2726
     26 O           0.0000   -2.5675    0.0000 O.3     1  UNL1       -0.4714
     27 C           0.0000   -1.2898    0.0000 C.3     1  UNL1        0.2525
     28 O           9.9537   -5.7556    0.0000 O.3     1  UNL1       -0.4415
     29 C           9.9537   -7.0333    0.0000 C.3     1  UNL1        0.2559
     30 H           9.9537   -0.6449    0.0000 H       1  UNL1        0.0366
     31 H           9.9537   -4.4779    0.0000 H       1  UNL1        0.0363
     32 H           7.7390   -4.4779    0.0000 H       1  UNL1        0.0483
@<TRIPOS>BOND
     1     1     2    1
     2     1    13    1
     3     2     3    1
     4     2    22    1
     5     3     4    1
     6     3    11    1
     7     3    30    1
     8     4     5    1
     9     5     6    1
    10     5     9    1
    11     6     7    1
    12     8     7    1
    13     8    14    1
    14     8     9    1
    15     8    17    1
    16     9    10    1
    17     9    32    1
    18    10    11    1
    19    11    31    1
    20    11    12    1
    21    12    13    2
    22    12    23    1
    23    14    15   am
    24    14    25    2
    25    15    16    1
    26    16    17   ar
    27    16    21   ar
    28    17    18   ar
    29    18    19   ar
    30    19    20   ar
    31    19    26    1
    32    20    21   ar
    33    23    24    2
    34    23    28    1
    35    26    27    1
    36    28    29    1
