@<TRIPOS>MOLECULE
IMPHY011597
 44 44 0 0 0
SMALL
GASTEIGER

@<TRIPOS>ATOM
      1 O           4.5981   -1.0950    0.0000 O.3     1  UNL1       -0.3315
      2 O           6.3301   -1.0950    0.0000 O.3     1  UNL1       -0.3460
      3 O           4.5981   -4.0950    0.0000 O.3     1  UNL1       -0.3864
      4 O           6.3301   -3.0950    0.0000 O.3     1  UNL1       -0.3841
      5 O           2.8660   -3.0950    0.0000 O.3     1  UNL1       -0.3860
      6 O           8.0622   -0.0950    0.0000 O.3     1  UNL1       -0.3869
      7 O           6.3301    1.9050    0.0000 O.3     1  UNL1       -0.3865
      8 O           8.9282    1.4050    0.0000 O.3     1  UNL1       -0.3861
      9 O           2.8660   -0.0950    0.0000 O.3     1  UNL1       -0.4788
     10 O           2.0000   -1.5950    0.0000 O.2     1  UNL1       -0.2480
     11 O           7.1962    3.4050    0.0000 O.3     1  UNL1       -0.3819
     12 O           8.9282    4.4050    0.0000 O.2     1  UNL1       -0.2982
     13 C           4.5981   -3.0950    0.0000 C.3     1  UNL1        0.1145
     14 C           5.4641   -2.5950    0.0000 C.3     1  UNL1        0.1341
     15 C           3.7320   -2.5950    0.0000 C.3     1  UNL1        0.1201
     16 C           5.4641   -1.5950    0.0000 C.3     1  UNL1        0.1886
     17 C           3.7320   -1.5950    0.0000 C.3     1  UNL1        0.1859
     18 C           7.1962    0.4050    0.0000 C.3     1  UNL1        0.1069
     19 C           6.3301   -0.0950    0.0000 C.3     1  UNL1        0.0792
     20 C           7.1962    1.4050    0.0000 C.3     1  UNL1        0.1118
     21 C           8.0622    1.9050    0.0000 C.3     1  UNL1        0.1159
     22 C           2.8660   -1.0950    0.0000 C.2     1  UNL1        0.3367
     23 C           8.0622    2.9050    0.0000 C.3     1  UNL1        0.1381
     24 C           8.9282    3.4050    0.0000 C.2     1  UNL1        0.1512
     25 H           5.1350   -3.4050    0.0000 H       1  UNL1        0.0648
     26 H           6.0010   -2.2850    0.0000 H       1  UNL1        0.0671
     27 H           3.7320   -3.2150    0.0000 H       1  UNL1        0.0652
     28 H           5.4641   -0.9750    0.0000 H       1  UNL1        0.0938
     29 H           3.7320   -0.9750    0.0000 H       1  UNL1        0.0741
     30 H           7.7331    0.7150    0.0000 H       1  UNL1        0.0643
     31 H           6.1181    0.4876    0.0000 H       1  UNL1        0.0587
     32 H           5.7196   -0.2027    0.0000 H       1  UNL1        0.0587
     33 H           6.6592    1.0950    0.0000 H       1  UNL1        0.0647
     34 H           8.0622    1.2850    0.0000 H       1  UNL1        0.0650
     35 H           5.1350   -4.4050    0.0000 H       1  UNL1        0.2100
     36 H           6.8671   -2.7850    0.0000 H       1  UNL1        0.2101
     37 H           2.8660   -3.7150    0.0000 H       1  UNL1        0.2100
     38 H           7.5252    2.5950    0.0000 H       1  UNL1        0.0697
     39 H           8.5991    0.2150    0.0000 H       1  UNL1        0.2100
     40 H           6.3301    2.5250    0.0000 H       1  UNL1        0.2100
     41 H           9.4651    1.7150    0.0000 H       1  UNL1        0.2100
     42 H           2.3291    0.2150    0.0000 H       1  UNL1        0.2951
     43 H           9.4651    3.0950    0.0000 H       1  UNL1        0.1055
     44 H           7.1962    4.0250    0.0000 H       1  UNL1        0.2105
@<TRIPOS>BOND
     1     1    16    1
     2     1    17    1
     3    16     2    1
     4     2    19    1
     5    13     3    1
     6     3    35    1
     7    14     4    1
     8     4    36    1
     9    15     5    1
    10     5    37    1
    11    18     6    1
    12     6    39    1
    13    20     7    1
    14     7    40    1
    15    21     8    1
    16     8    41    1
    17     9    22    1
    18     9    42    1
    19    10    22    2
    20    23    11    1
    21    11    44    1
    22    12    24    2
    23    13    14    1
    24    13    15    1
    25    13    25    1
    26    14    16    1
    27    14    26    1
    28    15    17    1
    29    15    27    1
    30    16    28    1
    31    17    22    1
    32    17    29    1
    33    18    19    1
    34    18    20    1
    35    18    30    1
    36    19    31    1
    37    19    32    1
    38    20    21    1
    39    20    33    1
    40    21    23    1
    41    21    34    1
    42    23    24    1
    43    23    38    1
    44    24    43    1
