@<TRIPOS>MOLECULE
IMPHY001736
 43 44 0 0 0
SMALL
GASTEIGER

@<TRIPOS>ATOM
      1 O           3.7320    0.2500    0.0000 O.3     1  UNL1       -0.3869
      2 O           6.3301   -3.2500    0.0000 O.3     1  UNL1       -0.4913
      3 O           2.8660   -3.2500    0.0000 O.3     1  UNL1       -0.4913
      4 O           7.1962    3.2500    0.0000 O.3     1  UNL1       -0.4915
      5 O           4.5981   -4.2500    0.0000 O.3     1  UNL1       -0.5009
      6 O           5.4641    4.2500    0.0000 O.3     1  UNL1       -0.5033
      7 C           4.5981   -0.2500    0.0000 C.3     1  UNL1        0.0844
      8 C           5.4641    0.2500    0.0000 C.3     1  UNL1        0.0027
      9 C           4.5981   -1.2500    0.0000 C.ar    1  UNL1       -0.0117
     10 C           5.4641    1.2500    0.0000 C.ar    1  UNL1       -0.0409
     11 C           3.7320   -1.7500    0.0000 C.ar    1  UNL1       -0.0104
     12 C           5.4641   -1.7500    0.0000 C.ar    1  UNL1       -0.0104
     13 C           6.3301    1.7500    0.0000 C.ar    1  UNL1       -0.0130
     14 C           4.5981    1.7500    0.0000 C.ar    1  UNL1       -0.0548
     15 C           5.4641   -2.7500    0.0000 C.ar    1  UNL1        0.1653
     16 C           3.7320   -2.7500    0.0000 C.ar    1  UNL1        0.1653
     17 C           4.5981   -3.2500    0.0000 C.ar    1  UNL1        0.2010
     18 C           6.3301    2.7500    0.0000 C.ar    1  UNL1        0.1615
     19 C           4.5981    2.7500    0.0000 C.ar    1  UNL1       -0.0163
     20 C           5.4641    3.2500    0.0000 C.ar    1  UNL1        0.1585
     21 C           7.1962   -2.7500    0.0000 C.3     1  UNL1        0.0790
     22 C           2.0000   -2.7500    0.0000 C.3     1  UNL1        0.0790
     23 C           8.0622    2.7500    0.0000 C.3     1  UNL1        0.0790
     24 H           4.5981    0.3700    0.0000 H       1  UNL1        0.0647
     25 H           5.6762   -0.3326    0.0000 H       1  UNL1        0.0342
     26 H           6.0747    0.3577    0.0000 H       1  UNL1        0.0342
     27 H           3.1951   -1.4400    0.0000 H       1  UNL1        0.0659
     28 H           6.0010   -1.4400    0.0000 H       1  UNL1        0.0659
     29 H           6.8671    1.4400    0.0000 H       1  UNL1        0.0658
     30 H           4.0611    1.4400    0.0000 H       1  UNL1        0.0621
     31 H           3.1951   -0.0600    0.0000 H       1  UNL1        0.2102
     32 H           4.0611    3.0600    0.0000 H       1  UNL1        0.0655
     33 H           4.0611   -4.5600    0.0000 H       1  UNL1        0.2924
     34 H           7.5062   -3.2869    0.0000 H       1  UNL1        0.0660
     35 H           7.7331   -2.4400    0.0000 H       1  UNL1        0.0660
     36 H           6.8862   -2.2131    0.0000 H       1  UNL1        0.0660
     37 H           2.3100   -2.2131    0.0000 H       1  UNL1        0.0660
     38 H           1.4631   -2.4400    0.0000 H       1  UNL1        0.0660
     39 H           1.6900   -3.2869    0.0000 H       1  UNL1        0.0660
     40 H           4.9272    4.5600    0.0000 H       1  UNL1        0.2923
     41 H           7.7522    2.2131    0.0000 H       1  UNL1        0.0660
     42 H           8.5991    2.4400    0.0000 H       1  UNL1        0.0660
     43 H           8.3722    3.2869    0.0000 H       1  UNL1        0.0660
@<TRIPOS>BOND
     1     1     7    1
     2     1    31    1
     3     2    15    1
     4     2    21    1
     5     3    16    1
     6     3    22    1
     7     4    18    1
     8     4    23    1
     9     5    17    1
    10     5    33    1
    11     6    20    1
    12     6    40    1
    13     7     8    1
    14     7     9    1
    15     7    24    1
    16     8    10    1
    17     8    25    1
    18     8    26    1
    19     9    11   ar
    20     9    12   ar
    21    10    13   ar
    22    10    14   ar
    23    11    16   ar
    24    11    27    1
    25    12    15   ar
    26    12    28    1
    27    13    18   ar
    28    13    29    1
    29    14    19   ar
    30    14    30    1
    31    15    17   ar
    32    16    17   ar
    33    18    20   ar
    34    19    20   ar
    35    19    32    1
    36    21    34    1
    37    21    35    1
    38    21    36    1
    39    22    37    1
    40    22    38    1
    41    22    39    1
    42    23    41    1
    43    23    42    1
    44    23    43    1
