@<TRIPOS>MOLECULE
IMPHY000915
 25 26 0 0 0
SMALL
GASTEIGER

@<TRIPOS>ATOM
      1 O           3.0723    2.3398    0.0000 O.2     1  UNL1       -0.2964
      2 C           5.4490   -0.4659    0.0000 C.3     1  UNL1       -0.0119
      3 C           4.3089    0.4912    0.0000 C.3     1  UNL1        0.0276
      4 C           4.0501   -0.4748    0.0000 C.3     1  UNL1        0.0443
      5 C           3.5723    1.4738    0.0000 C.2     1  UNL1        0.1448
      6 C           2.2756    0.1800    0.0000 C.3     1  UNL1       -0.0244
      7 C           2.8290   -1.3404    0.0000 C.2     1  UNL1       -0.0658
      8 C           5.9490   -1.3320    0.0000 C.3     1  UNL1       -0.0582
      9 C           6.3150    0.0341    0.0000 C.3     1  UNL1       -0.0582
     10 C           2.0000   -0.7812    0.0000 C.2     1  UNL1       -0.0837
     11 C           2.8639   -2.3398    0.0000 C.3     1  UNL1       -0.0431
     12 H           4.9262    1.0754    0.0000 H       1  UNL1        0.0386
     13 H           4.3106   -1.2838    0.0000 H       1  UNL1        0.0428
     14 H           2.2706    0.8000    0.0000 H       1  UNL1        0.0314
     15 H           1.6613    0.2638    0.0000 H       1  UNL1        0.0314
     16 H           5.4121   -1.6420    0.0000 H       1  UNL1        0.0235
     17 H           6.6250   -0.5029    0.0000 H       1  UNL1        0.0235
     18 H           6.8520    0.3441    0.0000 H       1  UNL1        0.0235
     19 H           6.0050    0.5710    0.0000 H       1  UNL1        0.0235
     20 H           6.2590   -1.8689    0.0000 H       1  UNL1        0.0235
     21 H           6.4859   -1.0220    0.0000 H       1  UNL1        0.0235
     22 H           1.4174   -0.9933    0.0000 H       1  UNL1        0.0572
     23 H           2.2443   -2.3614    0.0000 H       1  UNL1        0.0275
     24 H           2.8856   -2.9594    0.0000 H       1  UNL1        0.0275
     25 H           3.4836   -2.3182    0.0000 H       1  UNL1        0.0275
@<TRIPOS>BOND
     1     1     5    2
     2     2     3    1
     3     2     4    1
     4     2     8    1
     5     2     9    1
     6     3     5    1
     7     3     6    1
     8     3    12    1
     9     4     5    1
    10     4     7    1
    11     4    13    1
    12     6    10    1
    13     6    14    1
    14     6    15    1
    15     7    10    2
    16     7    11    1
    17     8    16    1
    18     8    20    1
    19     8    21    1
    20     9    17    1
    21     9    18    1
    22     9    19    1
    23    10    22    1
    24    11    23    1
    25    11    24    1
    26    11    25    1
