@<TRIPOS>MOLECULE
IMPHY016508
 9 8 0 0 0
SMALL
GASTEIGER

@<TRIPOS>ATOM
      1 CL          2.0000    0.2500    0.0000 Cl      1  UNL1       -0.1210
      2 C           2.8660   -0.2500    0.0000 C.3     1  UNL1        0.0405
      3 C           3.7320    0.2500    0.0000 C.2     1  UNL1       -0.0767
      4 C           4.5981   -0.2500    0.0000 C.2     1  UNL1       -0.1015
      5 H           2.4675   -0.7249    0.0000 H       1  UNL1        0.0473
      6 H           3.2646   -0.7249    0.0000 H       1  UNL1        0.0473
      7 H           3.7320    0.8700    0.0000 H       1  UNL1        0.0578
      8 H           4.5981   -0.8700    0.0000 H       1  UNL1        0.0532
      9 H           5.1350    0.0600    0.0000 H       1  UNL1        0.0532
@<TRIPOS>BOND
     1     1     2    1
     2     2     3    1
     3     2     5    1
     4     2     6    1
     5     3     4    2
     6     3     7    1
     7     4     8    1
     8     4     9    1
