@<TRIPOS>MOLECULE
IMPHY017507
 24 25 0 0 0
SMALL
GASTEIGER

@<TRIPOS>ATOM
      1 O           2.6166    0.6767    0.0000 O.3     1  UNL1       -0.3880
      2 C           3.2044   -0.1323    0.0000 C.3     1  UNL1        0.0728
      3 C           3.7922    0.6767    0.0000 C.3     1  UNL1        0.0124
      4 C           3.8967    1.6712    0.0000 C.3     1  UNL1       -0.0225
      5 C           2.3954   -0.7201    0.0000 C.3     1  UNL1       -0.0234
      6 C           4.0134   -0.7201    0.0000 C.3     1  UNL1       -0.0234
      7 C           4.7057    1.0834    0.0000 C.2     1  UNL1       -0.0699
      8 C           2.7044   -1.6712    0.0000 C.3     1  UNL1       -0.0504
      9 C           3.7044   -1.6712    0.0000 C.3     1  UNL1       -0.0504
     10 C           5.7002    0.9789    0.0000 C.2     1  UNL1       -0.0991
     11 H           3.2134    0.8989    0.0000 H       1  UNL1        0.0376
     12 H           4.1685    2.2284    0.0000 H       1  UNL1        0.0317
     13 H           3.3007    1.8421    0.0000 H       1  UNL1        0.0317
     14 H           2.0854   -0.1832    0.0000 H       1  UNL1        0.0293
     15 H           1.8290   -0.9723    0.0000 H       1  UNL1        0.0293
     16 H           4.5798   -0.9723    0.0000 H       1  UNL1        0.0293
     17 H           4.3234   -0.1832    0.0000 H       1  UNL1        0.0293
     18 H           2.0979   -1.8001    0.0000 H       1  UNL1        0.0266
     19 H           2.7692   -2.2878    0.0000 H       1  UNL1        0.0266
     20 H           3.6396   -2.2878    0.0000 H       1  UNL1        0.0266
     21 H           4.3108   -1.8001    0.0000 H       1  UNL1        0.0266
     22 H           2.0000    0.6119    0.0000 H       1  UNL1        0.2102
     23 H           5.9524    0.4125    0.0000 H       1  UNL1        0.0535
     24 H           6.0647    1.4805    0.0000 H       1  UNL1        0.0535
@<TRIPOS>BOND
     1     1     2    1
     2     1    22    1
     3     2     3    1
     4     2     5    1
     5     2     6    1
     6     3     4    1
     7     3     7    1
     8     3    11    1
     9     4     7    1
    10     4    12    1
    11     4    13    1
    12     5     8    1
    13     5    14    1
    14     5    15    1
    15     6     9    1
    16     6    16    1
    17     6    17    1
    18     7    10    2
    19     8     9    1
    20     8    18    1
    21     8    19    1
    22     9    20    1
    23     9    21    1
    24    10    23    1
    25    10    24    1
