@<TRIPOS>MOLECULE
IMPHY008339
 51 54 0 0 0
SMALL
GASTEIGER

@<TRIPOS>ATOM
      1 O           8.1223   -2.5159    0.0000 O.3     1  UNL1       -0.4574
      2 O           4.6497    0.5156    0.0000 O.2     1  UNL1       -0.2882
      3 O           5.5103    1.0125    0.0000 O.2     1  UNL1       -0.2884
      4 O           7.2762    2.0503    0.0000 O.2     1  UNL1       -0.4913
      5 O           2.8680   -0.4948    0.0000 O.2     1  UNL1       -0.4919
      6 O           9.8438   -2.5487    0.0000 O.2     1  UNL1       -0.2456
      7 C           7.2641   -1.0190    0.0000 C.3     1  UNL1        0.0413
      8 C           5.5320   -1.0190    0.0000 C.3     1  UNL1        0.0479
      9 C           6.3981   -0.5190    0.0000 C.3     1  UNL1        0.0507
     10 C           5.5320   -2.0190    0.0000 C.3     1  UNL1       -0.0209
     11 C           7.2641   -2.0190    0.0000 C.3     1  UNL1        0.1137
     12 C           6.3981   -2.5190    0.0000 C.3     1  UNL1       -0.0108
     13 C           8.1741   -0.5121    0.0000 C.2     1  UNL1       -0.0240
     14 C           4.6381   -2.5536    0.0000 C.3     1  UNL1       -0.0271
     15 C           7.2641   -0.0190    0.0000 C.3     1  UNL1       -0.0514
     16 C           5.5320   -0.0190    0.0000 C.3     1  UNL1       -0.0514
     17 C           4.6381   -0.4843    0.0000 C.2     1  UNL1        0.2038
     18 C           6.3820    0.5225    0.0000 C.2     1  UNL1        0.2025
     19 C           8.1821    0.5295    0.0000 C.2     1  UNL1       -0.0013
     20 C           7.2800    1.0503    0.0000 C.2     1  UNL1        0.1658
     21 C           3.7320   -2.0398    0.0000 C.2     1  UNL1       -0.0385
     22 C           3.7320   -0.9981    0.0000 C.2     1  UNL1        0.1590
     23 C           9.0134   -1.0404    0.0000 C.2     1  UNL1        0.0267
     24 C           8.9878   -2.0317    0.0000 C.2     1  UNL1        0.3325
     25 C           9.0501    1.0261    0.0000 C.3     1  UNL1       -0.0359
     26 C           8.1403    2.5536    0.0000 C.3     1  UNL1        0.0790
     27 C           2.0000   -0.9915    0.0000 C.3     1  UNL1        0.0789
     28 H           5.6587   -0.0997    0.0000 H       1  UNL1        0.0401
     29 H           5.5386   -2.8689    0.0000 H       1  UNL1        0.0315
     30 H           7.2636   -2.8690    0.0000 H       1  UNL1        0.0743
     31 H           5.9995   -2.9939    0.0000 H       1  UNL1        0.0304
     32 H           6.7966   -2.9939    0.0000 H       1  UNL1        0.0304
     33 H           4.2445   -3.0326    0.0000 H       1  UNL1        0.0312
     34 H           5.0427   -3.0234    0.0000 H       1  UNL1        0.0312
     35 H           7.8841   -0.0190    0.0000 H       1  UNL1        0.0240
     36 H           7.2641    0.6010    0.0000 H       1  UNL1        0.0240
     37 H           6.6441   -0.0190    0.0000 H       1  UNL1        0.0240
     38 H           6.1520   -0.0190    0.0000 H       1  UNL1        0.0239
     39 H           5.5320    0.6010    0.0000 H       1  UNL1        0.0239
     40 H           4.9120   -0.0190    0.0000 H       1  UNL1        0.0239
     41 H           3.1963   -2.3519    0.0000 H       1  UNL1        0.0609
     42 H           9.5600   -0.7477    0.0000 H       1  UNL1        0.0692
     43 H           9.3580    0.4880    0.0000 H       1  UNL1        0.0279
     44 H           9.5882    1.3341    0.0000 H       1  UNL1        0.0279
     45 H           8.7422    1.5643    0.0000 H       1  UNL1        0.0279
     46 H           8.4523    2.0179    0.0000 H       1  UNL1        0.0660
     47 H           8.6760    2.8657    0.0000 H       1  UNL1        0.0660
     48 H           7.8282    3.0894    0.0000 H       1  UNL1        0.0660
     49 H           1.6921   -0.4533    0.0000 H       1  UNL1        0.0660
     50 H           1.4619   -1.2994    0.0000 H       1  UNL1        0.0660
     51 H           2.3079   -1.5296    0.0000 H       1  UNL1        0.0660
@<TRIPOS>BOND
     1     1    11    1
     2     1    24    1
     3     2    17    2
     4     3    18    2
     5     4    20    1
     6     4    26    1
     7     5    22    1
     8     5    27    1
     9     6    24    2
    10     7     9    1
    11     7    11    1
    12     7    13    1
    13     7    15    1
    14     8     9    1
    15     8    10    1
    16     8    16    1
    17     8    17    1
    18     9    18    1
    19     9    28    1
    20    10    12    1
    21    10    14    1
    22    10    29    1
    23    11    12    1
    24    11    30    1
    25    12    31    1
    26    12    32    1
    27    13    19    1
    28    13    23    2
    29    14    21    1
    30    14    33    1
    31    14    34    1
    32    15    35    1
    33    15    36    1
    34    15    37    1
    35    16    38    1
    36    16    39    1
    37    16    40    1
    38    17    22    1
    39    18    20    1
    40    19    20    2
    41    19    25    1
    42    21    22    2
    43    21    41    1
    44    23    24    1
    45    23    42    1
    46    25    43    1
    47    25    44    1
    48    25    45    1
    49    26    46    1
    50    26    47    1
    51    26    48    1
    52    27    49    1
    53    27    50    1
    54    27    51    1
