@<TRIPOS>MOLECULE
IMPHY010179
 39 40 0 0 0
SMALL
GASTEIGER

@<TRIPOS>ATOM
      1 C           3.8660    0.5000    0.0000 C.3     1  UNL1        0.0003
      2 C           3.0000    1.0000    0.0000 C.3     1  UNL1       -0.0253
      3 C           3.0000    2.0000    0.0000 C.3     1  UNL1       -0.0468
      4 C           4.7320   -0.0000    0.0000 C.3     1  UNL1       -0.0392
      5 C           3.0000   -0.0000    0.0000 C.3     1  UNL1       -0.0247
      6 C           4.7320    1.0000    0.0000 C.2     1  UNL1       -0.0696
      7 C           3.8660    2.5000    0.0000 C.3     1  UNL1       -0.0488
      8 C           4.7320    2.0000    0.0000 C.3     1  UNL1       -0.0314
      9 C           2.0000    1.0000    0.0000 C.3     1  UNL1       -0.0590
     10 C           2.2340    0.3572    0.0000 C.3     1  UNL1       -0.0590
     11 C           4.7320   -1.0000    0.0000 C.3     1  UNL1       -0.0312
     12 C           3.0000   -1.0000    0.0000 C.2     1  UNL1       -0.0842
     13 C           3.8660   -1.5000    0.0000 C.2     1  UNL1       -0.0765
     14 C           5.5981    0.5000    0.0000 C.2     1  UNL1       -0.0989
     15 C           3.8660   -2.5000    0.0000 C.3     1  UNL1       -0.0438
     16 H           2.7880    2.5826    0.0000 H       1  UNL1        0.0271
     17 H           2.3894    1.8923    0.0000 H       1  UNL1        0.0271
     18 H           5.3426   -0.1077    0.0000 H       1  UNL1        0.0277
     19 H           4.9441    0.5826    0.0000 H       1  UNL1        0.0277
     20 H           2.7880    0.5826    0.0000 H       1  UNL1        0.0316
     21 H           2.3894   -0.1077    0.0000 H       1  UNL1        0.0316
     22 H           4.2646    2.9750    0.0000 H       1  UNL1        0.0268
     23 H           3.4675    2.9750    0.0000 H       1  UNL1        0.0268
     24 H           5.3426    1.8923    0.0000 H       1  UNL1        0.0310
     25 H           4.9441    2.5826    0.0000 H       1  UNL1        0.0310
     26 H           2.0000    1.6200    0.0000 H       1  UNL1        0.0235
     27 H           1.3800    1.0000    0.0000 H       1  UNL1        0.0235
     28 H           2.0000    0.3800    0.0000 H       1  UNL1        0.0235
     29 H           1.8354    0.8321    0.0000 H       1  UNL1        0.0235
     30 H           1.7590   -0.0414    0.0000 H       1  UNL1        0.0235
     31 H           2.6325   -0.1177    0.0000 H       1  UNL1        0.0235
     32 H           4.9441   -1.5826    0.0000 H       1  UNL1        0.0310
     33 H           5.3426   -0.8923    0.0000 H       1  UNL1        0.0310
     34 H           2.4631   -1.3100    0.0000 H       1  UNL1        0.0572
     35 H           5.5981   -0.1200    0.0000 H       1  UNL1        0.0535
     36 H           6.1350    0.8100    0.0000 H       1  UNL1        0.0535
     37 H           3.2460   -2.5000    0.0000 H       1  UNL1        0.0274
     38 H           3.8660   -3.1200    0.0000 H       1  UNL1        0.0274
     39 H           4.4860   -2.5000    0.0000 H       1  UNL1        0.0274
@<TRIPOS>BOND
     1     1     2    1
     2     1     4    1
     3     1     5    1
     4     1     6    1
     5     2     3    1
     6     2     9    1
     7     2    10    1
     8     3     7    1
     9     3    16    1
    10     3    17    1
    11     4    11    1
    12     4    18    1
    13     4    19    1
    14     5    12    1
    15     5    20    1
    16     5    21    1
    17     6     8    1
    18     6    14    2
    19     7     8    1
    20     7    22    1
    21     7    23    1
    22     8    24    1
    23     8    25    1
    24     9    26    1
    25     9    27    1
    26     9    28    1
    27    10    29    1
    28    10    30    1
    29    10    31    1
    30    11    13    1
    31    11    32    1
    32    11    33    1
    33    12    13    2
    34    12    34    1
    35    13    15    1
    36    14    35    1
    37    14    36    1
    38    15    37    1
    39    15    38    1
    40    15    39    1
