@<TRIPOS>MOLECULE
IMPHY010255
 82 85 0 0 0
SMALL
GASTEIGER

@<TRIPOS>ATOM
      1 O           9.1985   -1.2962    0.0000 O.2     1  UNL1       -0.2702
      2 O           7.4521    1.5019    0.0000 O.2     1  UNL1       -0.2702
      3 O          11.4958    3.9095    0.0000 O.3     1  UNL1       -0.4914
      4 O           7.0056   -3.9095    0.0000 O.3     1  UNL1       -0.4914
      5 O          15.2481   -4.2791    0.0000 O.3     1  UNL1       -0.5068
      6 O           2.6106    4.0452    0.0000 O.3     1  UNL1       -0.5068
      7 O           9.7638    4.9095    0.0000 O.3     1  UNL1       -0.5033
      8 O           8.7377   -4.9095    0.0000 O.3     1  UNL1       -0.5033
      9 N          11.0493   -0.6226    0.0000 N.am    1  UNL1       -0.3110
     10 N           6.8093    0.3886    0.0000 N.am    1  UNL1       -0.3110
     11 C          12.6769   -1.2150    0.0000 C.3     1  UNL1       -0.0120
     12 C           5.1817    0.9810    0.0000 C.3     1  UNL1       -0.0120
     13 C          11.6921   -1.3886    0.0000 C.3     1  UNL1        0.0159
     14 C           6.1665    1.1546    0.0000 C.3     1  UNL1        0.0159
     15 C           9.4217   -0.0302    0.0000 C.2     1  UNL1        0.0493
     16 C           8.4369   -0.2038    0.0000 C.2     1  UNL1        0.0493
     17 C          13.3197   -1.9810    0.0000 C.ar    1  UNL1       -0.0457
     18 C           4.5389    1.7470    0.0000 C.ar    1  UNL1       -0.0457
     19 C          10.0645   -0.7962    0.0000 C.2     1  UNL1        0.2448
     20 C           7.7941    0.5622    0.0000 C.2     1  UNL1        0.2448
     21 C           8.0949   -1.1435    0.0000 C.2     1  UNL1       -0.0416
     22 C           9.7638    0.9095    0.0000 C.2     1  UNL1       -0.0416
     23 C           8.7377   -1.9095    0.0000 C.ar    1  UNL1       -0.0206
     24 C           9.7638    1.9095    0.0000 C.ar    1  UNL1       -0.0206
     25 C          12.9777   -2.9207    0.0000 C.ar    1  UNL1       -0.0551
     26 C           4.8810    2.6867    0.0000 C.ar    1  UNL1       -0.0551
     27 C          14.3045   -1.8073    0.0000 C.ar    1  UNL1       -0.0551
     28 C           3.5541    1.5734    0.0000 C.ar    1  UNL1       -0.0551
     29 C          10.6298    2.4095    0.0000 C.ar    1  UNL1       -0.0091
     30 C           7.8717   -2.4095    0.0000 C.ar    1  UNL1       -0.0091
     31 C           9.6037   -2.4095    0.0000 C.ar    1  UNL1       -0.0509
     32 C           8.8977    2.4095    0.0000 C.ar    1  UNL1       -0.0509
     33 C          13.6205   -3.6867    0.0000 C.ar    1  UNL1       -0.0199
     34 C           4.2382    3.4528    0.0000 C.ar    1  UNL1       -0.0199
     35 C          14.9473   -2.5734    0.0000 C.ar    1  UNL1       -0.0199
     36 C           2.9114    2.3394    0.0000 C.ar    1  UNL1       -0.0199
     37 C           3.2534    3.2791    0.0000 C.ar    1  UNL1        0.1169
     38 C          14.6053   -3.5131    0.0000 C.ar    1  UNL1        0.1169
     39 C          10.6298    3.4095    0.0000 C.ar    1  UNL1        0.1618
     40 C           7.8717   -3.4095    0.0000 C.ar    1  UNL1        0.1618
     41 C           9.6037   -3.4095    0.0000 C.ar    1  UNL1       -0.0160
     42 C           8.8977    3.4095    0.0000 C.ar    1  UNL1       -0.0160
     43 C           8.7377   -3.9095    0.0000 C.ar    1  UNL1        0.1585
     44 C           9.7638    3.9095    0.0000 C.ar    1  UNL1        0.1585
     45 C           6.1396   -3.4095    0.0000 C.3     1  UNL1        0.0790
     46 C          12.3618    3.4095    0.0000 C.3     1  UNL1        0.0790
     47 H          13.2139   -0.9049    0.0000 H       1  UNL1        0.0328
     48 H          12.4649   -0.6323    0.0000 H       1  UNL1        0.0328
     49 H           4.6448    0.6710    0.0000 H       1  UNL1        0.0328
     50 H           5.3938    0.3984    0.0000 H       1  UNL1        0.0328
     51 H          11.1552   -1.6986    0.0000 H       1  UNL1        0.0465
     52 H          11.9042   -1.9712    0.0000 H       1  UNL1        0.0465
     53 H           6.7035    1.4646    0.0000 H       1  UNL1        0.0465
     54 H           5.9545    1.7372    0.0000 H       1  UNL1        0.0465
     55 H          11.2614   -0.0399    0.0000 H       1  UNL1        0.1490
     56 H           6.5973   -0.1940    0.0000 H       1  UNL1        0.1490
     57 H          10.3743    1.0172    0.0000 H       1  UNL1        0.0631
     58 H           7.4843   -1.2512    0.0000 H       1  UNL1        0.0631
     59 H          12.3671   -3.0284    0.0000 H       1  UNL1        0.0621
     60 H           5.4915    2.7944    0.0000 H       1  UNL1        0.0621
     61 H          14.5166   -1.2247    0.0000 H       1  UNL1        0.0621
     62 H           3.3421    0.9908    0.0000 H       1  UNL1        0.0621
     63 H           7.3347   -2.0995    0.0000 H       1  UNL1        0.0661
     64 H          11.1667    2.0995    0.0000 H       1  UNL1        0.0661
     65 H          10.1407   -2.0995    0.0000 H       1  UNL1        0.0625
     66 H           8.3608    2.0995    0.0000 H       1  UNL1        0.0625
     67 H          13.4084   -4.2693    0.0000 H       1  UNL1        0.0654
     68 H           4.4502    4.0354    0.0000 H       1  UNL1        0.0654
     69 H          15.5579   -2.4657    0.0000 H       1  UNL1        0.0654
     70 H           2.3008    2.2318    0.0000 H       1  UNL1        0.0654
     71 H           8.3608    3.7195    0.0000 H       1  UNL1        0.0655
     72 H          10.1407   -3.7195    0.0000 H       1  UNL1        0.0655
     73 H          15.8587   -4.1715    0.0000 H       1  UNL1        0.2921
     74 H           2.0000    3.9375    0.0000 H       1  UNL1        0.2921
     75 H          10.3007    5.2195    0.0000 H       1  UNL1        0.2923
     76 H           9.2746   -5.2195    0.0000 H       1  UNL1        0.2923
     77 H           6.4496   -2.8726    0.0000 H       1  UNL1        0.0660
     78 H           5.6027   -3.0995    0.0000 H       1  UNL1        0.0660
     79 H           5.8296   -3.9465    0.0000 H       1  UNL1        0.0660
     80 H          12.0518    2.8726    0.0000 H       1  UNL1        0.0660
     81 H          12.8988    3.0995    0.0000 H       1  UNL1        0.0660
     82 H          12.6718    3.9465    0.0000 H       1  UNL1        0.0660
@<TRIPOS>BOND
     1     1    19    2
     2     2    20    2
     3     3    39    1
     4     3    46    1
     5     4    40    1
     6     4    45    1
     7     5    38    1
     8     5    73    1
     9     6    37    1
    10     6    74    1
    11     7    44    1
    12     7    75    1
    13     8    43    1
    14     8    76    1
    15     9    13    1
    16     9    19   am
    17     9    55    1
    18    10    14    1
    19    10    20   am
    20    10    56    1
    21    11    13    1
    22    11    17    1
    23    11    47    1
    24    11    48    1
    25    12    14    1
    26    12    18    1
    27    12    49    1
    28    12    50    1
    29    13    51    1
    30    13    52    1
    31    14    53    1
    32    14    54    1
    33    15    16    1
    34    15    19    1
    35    15    22    2
    36    16    20    1
    37    16    21    2
    38    17    25   ar
    39    17    27   ar
    40    18    26   ar
    41    18    28   ar
    42    21    23    1
    43    21    58    1
    44    22    24    1
    45    22    57    1
    46    23    30   ar
    47    23    31   ar
    48    24    29   ar
    49    24    32   ar
    50    25    33   ar
    51    25    59    1
    52    26    34   ar
    53    26    60    1
    54    27    35   ar
    55    27    61    1
    56    28    36   ar
    57    28    62    1
    58    29    39   ar
    59    29    64    1
    60    30    40   ar
    61    30    63    1
    62    31    41   ar
    63    31    65    1
    64    32    42   ar
    65    32    66    1
    66    33    38   ar
    67    33    67    1
    68    34    37   ar
    69    34    68    1
    70    35    38   ar
    71    35    69    1
    72    36    37   ar
    73    36    70    1
    74    39    44   ar
    75    40    43   ar
    76    41    43   ar
    77    41    72    1
    78    42    44   ar
    79    42    71    1
    80    45    77    1
    81    45    78    1
    82    45    79    1
    83    46    80    1
    84    46    81    1
    85    46    82    1
