@<TRIPOS>MOLECULE
IMPHY007115
 142 149 0 0 0
SMALL
GASTEIGER

@<TRIPOS>ATOM
      1 O           6.8671   -1.6941    0.0000 O.3     1  UNL1       -0.3448
      2 O           9.3112   -1.0024    0.0000 O.3     1  UNL1       -0.3944
      3 O           8.6424    7.6604    0.0000 O.2     1  UNL1       -0.2968
      4 O           5.1350   -1.6941    0.0000 O.3     1  UNL1       -0.3315
      5 O           6.8671   -3.6941    0.0000 O.3     1  UNL1       -0.3377
      6 O           5.1350   -4.6941    0.0000 O.3     1  UNL1       -0.3864
      7 O           3.4030   -3.6941    0.0000 O.3     1  UNL1       -0.3860
      8 O           6.0010   -5.1941    0.0000 O.3     1  UNL1       -0.3405
      9 O           2.5369   -2.1941    0.0000 O.3     1  UNL1       -0.4788
     10 O           3.4030   -0.6941    0.0000 O.2     1  UNL1       -0.2480
     11 O           8.5991   -4.6941    0.0000 O.3     1  UNL1       -0.3378
     12 O           8.5991   -6.6941    0.0000 O.3     1  UNL1       -0.3864
     13 O           6.8671   -7.6941    0.0000 O.3     1  UNL1       -0.3865
     14 O           9.4651   -6.1941    0.0000 O.3     1  UNL1       -0.3431
     15 O           5.1350   -7.6941    0.0000 O.3     1  UNL1       -0.3924
     16 O          10.3312   -3.6941    0.0000 O.3     1  UNL1       -0.3841
     17 O          12.0632   -4.6941    0.0000 O.3     1  UNL1       -0.3864
     18 O          12.0632   -6.6941    0.0000 O.3     1  UNL1       -0.3866
     19 C           7.7681    3.0061    0.0000 C.3     1  UNL1       -0.0194
     20 C           6.8920    1.4612    0.0000 C.3     1  UNL1       -0.0249
     21 C           6.9040    2.5027    0.0000 C.3     1  UNL1       -0.0257
     22 C           7.7643    4.0061    0.0000 C.3     1  UNL1       -0.0051
     23 C           7.7920    0.9369    0.0000 C.3     1  UNL1       -0.0255
     24 C           8.6801    2.5027    0.0000 C.3     1  UNL1       -0.0463
     25 C           7.8046   -0.1480    0.0000 C.3     1  UNL1        0.0206
     26 C           8.6921    1.4612    0.0000 C.3     1  UNL1       -0.0485
     27 C           6.8963    4.5027    0.0000 C.2     1  UNL1       -0.0630
     28 C           5.9421    0.9369    0.0000 C.3     1  UNL1       -0.0447
     29 C           6.0361    2.9994    0.0000 C.3     1  UNL1       -0.0306
     30 C           6.8762    5.5442    0.0000 C.3     1  UNL1       -0.0068
     31 C           8.6723    4.5164    0.0000 C.3     1  UNL1       -0.0425
     32 C           7.7722    6.0754    0.0000 C.3     1  UNL1        0.0327
     33 C           6.8671   -0.6941    0.0000 C.3     1  UNL1        0.0695
     34 C           8.7522    3.1835    0.0000 C.3     1  UNL1       -0.0585
     35 C           6.0279    1.9645    0.0000 C.3     1  UNL1       -0.0590
     36 C           5.9295   -0.1480    0.0000 C.3     1  UNL1       -0.0254
     37 C           8.6763    5.5580    0.0000 C.3     1  UNL1       -0.0396
     38 C           6.0322    3.9994    0.0000 C.2     1  UNL1       -0.0836
     39 C           8.7497    3.8362    0.0000 C.3     1  UNL1       -0.0553
     40 C           5.9223    6.0611    0.0000 C.3     1  UNL1       -0.0400
     41 C           8.8046   -0.1403    0.0000 C.3     1  UNL1        0.0522
     42 C           8.3113   -1.0102    0.0000 C.3     1  UNL1       -0.0548
     43 C           5.9014    7.1459    0.0000 C.3     1  UNL1       -0.0276
     44 C           7.7764    7.1604    0.0000 C.2     1  UNL1        0.1403
     45 C           8.6324    6.5854    0.0000 C.3     1  UNL1       -0.0523
     46 C           6.8347    7.6992    0.0000 C.3     1  UNL1        0.0116
     47 C           5.3881    8.0041    0.0000 C.3     1  UNL1       -0.0594
     48 C           4.9015    7.1305    0.0000 C.3     1  UNL1       -0.0594
     49 C           6.0010   -2.1941    0.0000 C.3     1  UNL1        0.1892
     50 C           6.0010   -3.1941    0.0000 C.3     1  UNL1        0.1407
     51 C           5.1350   -3.6941    0.0000 C.3     1  UNL1        0.1149
     52 C           4.2690   -2.1941    0.0000 C.3     1  UNL1        0.1859
     53 C           4.2690   -3.1941    0.0000 C.3     1  UNL1        0.1202
     54 C           6.8671   -4.6941    0.0000 C.3     1  UNL1        0.1889
     55 C           3.4030   -1.6941    0.0000 C.2     1  UNL1        0.3367
     56 C           7.7331   -5.1941    0.0000 C.3     1  UNL1        0.1406
     57 C           7.7331   -6.1941    0.0000 C.3     1  UNL1        0.1144
     58 C           6.0010   -6.1941    0.0000 C.3     1  UNL1        0.1130
     59 C           6.8671   -6.6941    0.0000 C.3     1  UNL1        0.1119
     60 C           5.1350   -6.6941    0.0000 C.3     1  UNL1        0.0730
     61 C           9.4651   -5.1941    0.0000 C.3     1  UNL1        0.1884
     62 C          10.3312   -4.6941    0.0000 C.3     1  UNL1        0.1341
     63 C          11.1972   -5.1941    0.0000 C.3     1  UNL1        0.1140
     64 C          10.3312   -6.6941    0.0000 C.3     1  UNL1        0.0873
     65 C          11.1972   -6.1941    0.0000 C.3     1  UNL1        0.1095
     66 C          10.3312   -7.6941    0.0000 C.3     1  UNL1       -0.0361
     67 H           7.6385    2.0749    0.0000 H       1  UNL1        0.0315
     68 H           8.5314    0.5176    0.0000 H       1  UNL1        0.0313
     69 H           9.2921    2.4037    0.0000 H       1  UNL1        0.0271
     70 H           8.8824    3.0888    0.0000 H       1  UNL1        0.0271
     71 H           8.9079    0.8800    0.0000 H       1  UNL1        0.0268
     72 H           9.3017    1.5743    0.0000 H       1  UNL1        0.0268
     73 H           5.7398    1.5230    0.0000 H       1  UNL1        0.0271
     74 H           5.3300    0.8379    0.0000 H       1  UNL1        0.0271
     75 H           5.4251    3.1047    0.0000 H       1  UNL1        0.0310
     76 H           5.8263    2.4160    0.0000 H       1  UNL1        0.0310
     77 H           6.1502    5.1023    0.0000 H       1  UNL1        0.0355
     78 H           8.8791    3.9319    0.0000 H       1  UNL1        0.0274
     79 H           9.2836    4.6202    0.0000 H       1  UNL1        0.0274
     80 H           7.4046   -1.0031    0.0000 H       1  UNL1        0.0603
     81 H           8.8623    2.5734    0.0000 H       1  UNL1        0.0235
     82 H           9.3624    3.2936    0.0000 H       1  UNL1        0.0235
     83 H           8.6422    3.7937    0.0000 H       1  UNL1        0.0235
     84 H           6.3400    2.5003    0.0000 H       1  UNL1        0.0235
     85 H           5.4922    2.2766    0.0000 H       1  UNL1        0.0235
     86 H           5.7158    1.4288    0.0000 H       1  UNL1        0.0235
     87 H           5.3199   -0.0349    0.0000 H       1  UNL1        0.0290
     88 H           5.7137   -0.7293    0.0000 H       1  UNL1        0.0290
     89 H           9.2868    5.4496    0.0000 H       1  UNL1        0.0275
     90 H           8.8876    6.1409    0.0000 H       1  UNL1        0.0275
     91 H           5.4941    4.3073    0.0000 H       1  UNL1        0.0572
     92 H           8.6444    3.2252    0.0000 H       1  UNL1        0.0238
     93 H           9.3607    3.7309    0.0000 H       1  UNL1        0.0238
     94 H           8.8550    4.4472    0.0000 H       1  UNL1        0.0238
     95 H           5.3095    6.1554    0.0000 H       1  UNL1        0.0277
     96 H           5.7246    5.4735    0.0000 H       1  UNL1        0.0277
     97 H           9.3855    0.0762    0.0000 H       1  UNL1        0.0563
     98 H           8.6922    0.4694    0.0000 H       1  UNL1        0.0563
     99 H           7.7767   -1.3243    0.0000 H       1  UNL1        0.0237
    100 H           8.6254   -1.5447    0.0000 H       1  UNL1        0.0237
    101 H           8.8458   -0.6960    0.0000 H       1  UNL1        0.0237
    102 H           8.9486    6.0521    0.0000 H       1  UNL1        0.0239
    103 H           9.1657    6.9016    0.0000 H       1  UNL1        0.0239
    104 H           8.3162    7.1187    0.0000 H       1  UNL1        0.0239
    105 H           7.2302    8.1767    0.0000 H       1  UNL1        0.0347
    106 H           6.4319    8.1706    0.0000 H       1  UNL1        0.0347
    107 H           5.9202    8.3224    0.0000 H       1  UNL1        0.0235
    108 H           5.0699    8.5362    0.0000 H       1  UNL1        0.0235
    109 H           4.8560    7.6859    0.0000 H       1  UNL1        0.0235
    110 H           4.8920    7.7504    0.0000 H       1  UNL1        0.0235
    111 H           4.2816    7.1209    0.0000 H       1  UNL1        0.0235
    112 H           4.9111    6.5106    0.0000 H       1  UNL1        0.0235
    113 H           6.0010   -1.5741    0.0000 H       1  UNL1        0.0938
    114 H           9.9312   -0.9977    0.0000 H       1  UNL1        0.2094
    115 H           6.0010   -3.8141    0.0000 H       1  UNL1        0.0675
    116 H           4.5981   -4.0041    0.0000 H       1  UNL1        0.0648
    117 H           4.2690   -1.5741    0.0000 H       1  UNL1        0.0741
    118 H           3.7320   -2.8841    0.0000 H       1  UNL1        0.0652
    119 H           7.4040   -4.3841    0.0000 H       1  UNL1        0.0938
    120 H           4.5981   -5.0041    0.0000 H       1  UNL1        0.2100
    121 H           3.4030   -4.3141    0.0000 H       1  UNL1        0.2100
    122 H           8.2700   -5.5041    0.0000 H       1  UNL1        0.0675
    123 H           7.7331   -6.8141    0.0000 H       1  UNL1        0.0648
    124 H           5.4641   -5.8841    0.0000 H       1  UNL1        0.0647
    125 H           6.3301   -7.0041    0.0000 H       1  UNL1        0.0647
    126 H           2.0000   -1.8841    0.0000 H       1  UNL1        0.2951
    127 H           4.9230   -6.1115    0.0000 H       1  UNL1        0.0584
    128 H           4.5244   -6.8018    0.0000 H       1  UNL1        0.0584
    129 H           9.4651   -4.5741    0.0000 H       1  UNL1        0.0938
    130 H           8.5991   -7.3141    0.0000 H       1  UNL1        0.2100
    131 H           7.4040   -8.0041    0.0000 H       1  UNL1        0.2100
    132 H          10.8681   -4.3841    0.0000 H       1  UNL1        0.0671
    133 H          11.7341   -5.5041    0.0000 H       1  UNL1        0.0648
    134 H           4.5981   -8.0041    0.0000 H       1  UNL1        0.2095
    135 H           9.7942   -7.0041    0.0000 H       1  UNL1        0.0621
    136 H          11.1972   -6.8141    0.0000 H       1  UNL1        0.0646
    137 H          10.8681   -3.3841    0.0000 H       1  UNL1        0.2101
    138 H           9.7112   -7.6941    0.0000 H       1  UNL1        0.0255
    139 H          10.3312   -8.3141    0.0000 H       1  UNL1        0.0255
    140 H          10.9512   -7.6941    0.0000 H       1  UNL1        0.0255
    141 H          12.6002   -5.0041    0.0000 H       1  UNL1        0.2100
    142 H          12.0632   -7.3141    0.0000 H       1  UNL1        0.2100
@<TRIPOS>BOND
     1    33     1    1
     2    49     1    1
     3     2    41    1
     4     2   114    1
     5     3    44    2
     6     4    49    1
     7     4    52    1
     8    50     5    1
     9    54     5    1
    10    51     6    1
    11     6   120    1
    12    53     7    1
    13     7   121    1
    14     8    54    1
    15     8    58    1
    16     9    55    1
    17     9   126    1
    18    10    55    2
    19    56    11    1
    20    61    11    1
    21    57    12    1
    22    12   130    1
    23    59    13    1
    24    13   131    1
    25    14    61    1
    26    14    64    1
    27    15    60    1
    28    15   134    1
    29    62    16    1
    30    16   137    1
    31    63    17    1
    32    17   141    1
    33    65    18    1
    34    18   142    1
    35    19    21    1
    36    19    22    1
    37    19    24    1
    38    19    34    1
    39    20    21    1
    40    20    23    1
    41    20    28    1
    42    20    35    1
    43    21    29    1
    44    21    67    1
    45    22    27    1
    46    22    31    1
    47    22    39    1
    48    23    25    1
    49    23    26    1
    50    23    68    1
    51    24    26    1
    52    24    69    1
    53    24    70    1
    54    25    33    1
    55    25    41    1
    56    25    42    1
    57    26    71    1
    58    26    72    1
    59    27    30    1
    60    27    38    2
    61    28    36    1
    62    28    73    1
    63    28    74    1
    64    29    38    1
    65    29    75    1
    66    29    76    1
    67    30    32    1
    68    30    40    1
    69    30    77    1
    70    31    37    1
    71    31    78    1
    72    31    79    1
    73    32    37    1
    74    32    44    1
    75    32    45    1
    76    33    36    1
    77    33    80    1
    78    34    81    1
    79    34    82    1
    80    34    83    1
    81    35    84    1
    82    35    85    1
    83    35    86    1
    84    36    87    1
    85    36    88    1
    86    37    89    1
    87    37    90    1
    88    38    91    1
    89    39    92    1
    90    39    93    1
    91    39    94    1
    92    40    43    1
    93    40    95    1
    94    40    96    1
    95    41    97    1
    96    41    98    1
    97    42    99    1
    98    42   100    1
    99    42   101    1
   100    43    46    1
   101    43    47    1
   102    43    48    1
   103    44    46    1
   104    45   102    1
   105    45   103    1
   106    45   104    1
   107    46   105    1
   108    46   106    1
   109    47   107    1
   110    47   108    1
   111    47   109    1
   112    48   110    1
   113    48   111    1
   114    48   112    1
   115    49    50    1
   116    49   113    1
   117    50    51    1
   118    50   115    1
   119    51    53    1
   120    51   116    1
   121    52    53    1
   122    52    55    1
   123    52   117    1
   124    53   118    1
   125    54    56    1
   126    54   119    1
   127    56    57    1
   128    56   122    1
   129    57    59    1
   130    57   123    1
   131    58    59    1
   132    58    60    1
   133    58   124    1
   134    59   125    1
   135    60   127    1
   136    60   128    1
   137    61    62    1
   138    61   129    1
   139    62    63    1
   140    62   132    1
   141    63    65    1
   142    63   133    1
   143    64    65    1
   144    64    66    1
   145    64   135    1
   146    65   136    1
   147    66   138    1
   148    66   139    1
   149    66   140    1
