@<TRIPOS>MOLECULE
IMPHY001834
 83 87 0 0 0
SMALL
GASTEIGER

@<TRIPOS>ATOM
      1 O           2.5357   -1.8922    0.0000 O.3     1  UNL1       -0.3912
      2 O          11.5367    1.2129    0.0000 O.3     1  UNL1       -0.3912
      3 O           4.3500   -3.6701    0.0000 O.3     1  UNL1       -0.3944
      4 C           7.0628   -0.3398    0.0000 C.3     1  UNL1       -0.0194
      5 C           6.1968    0.1601    0.0000 C.3     1  UNL1       -0.0257
      6 C           5.2868   -0.3467    0.0000 C.3     1  UNL1       -0.0249
      7 C           7.9288    0.1601    0.0000 C.3     1  UNL1       -0.0051
      8 C           5.2787   -1.3883    0.0000 C.3     1  UNL1       -0.0255
      9 C           7.0789   -1.3814    0.0000 C.3     1  UNL1       -0.0463
     10 C           7.9288    1.1602    0.0000 C.2     1  UNL1       -0.0633
     11 C           8.8228    1.6948    0.0000 C.3     1  UNL1       -0.0111
     12 C           6.1808   -1.9091    0.0000 C.3     1  UNL1       -0.0485
     13 C           4.3433   -1.9380    0.0000 C.3     1  UNL1        0.0203
     14 C           9.7288    1.1810    0.0000 C.3     1  UNL1        0.0005
     15 C           8.8228   -0.3745    0.0000 C.3     1  UNL1       -0.0428
     16 C           6.1968    1.1602    0.0000 C.3     1  UNL1       -0.0306
     17 C           4.3599    0.2174    0.0000 C.3     1  UNL1       -0.0447
     18 C           9.7288    0.1393    0.0000 C.3     1  UNL1       -0.0439
     19 C           7.7056   -1.1059    0.0000 C.3     1  UNL1       -0.0585
     20 C           7.0628    1.6602    0.0000 C.2     1  UNL1       -0.0836
     21 C           3.4037   -1.3955    0.0000 C.3     1  UNL1        0.0630
     22 C           5.2945    0.6533    0.0000 C.3     1  UNL1       -0.0590
     23 C           8.2709   -0.7795    0.0000 C.3     1  UNL1       -0.0553
     24 C           3.4120   -0.3106    0.0000 C.3     1  UNL1       -0.0257
     25 C           8.7977    2.7795    0.0000 C.3     1  UNL1       -0.0406
     26 C          10.6726    1.7162    0.0000 C.3     1  UNL1        0.0616
     27 C           9.7288    3.3364    0.0000 C.3     1  UNL1       -0.0320
     28 C          10.6726    2.8012    0.0000 C.3     1  UNL1       -0.0211
     29 C           3.8467   -2.8060    0.0000 C.3     1  UNL1        0.0522
     30 C           4.8466   -2.8021    0.0000 C.3     1  UNL1       -0.0548
     31 C          10.5987    0.6877    0.0000 C.3     1  UNL1       -0.0567
     32 C          10.2188    4.2082    0.0000 C.3     1  UNL1       -0.0597
     33 C           9.2188    4.1966    0.0000 C.3     1  UNL1       -0.0597
     34 H           6.9329    0.5851    0.0000 H       1  UNL1        0.0315
     35 H           5.2820   -2.2383    0.0000 H       1  UNL1        0.0313
     36 H           7.2969   -1.9618    0.0000 H       1  UNL1        0.0271
     37 H           7.6880   -1.2659    0.0000 H       1  UNL1        0.0271
     38 H           9.5522    2.1311    0.0000 H       1  UNL1        0.0352
     39 H           5.7835   -2.3851    0.0000 H       1  UNL1        0.0268
     40 H           6.5818   -2.3820    0.0000 H       1  UNL1        0.0268
     41 H           8.4182   -0.8443    0.0000 H       1  UNL1        0.0274
     42 H           9.2164   -0.8535    0.0000 H       1  UNL1        0.0274
     43 H           5.9847    1.7428    0.0000 H       1  UNL1        0.0310
     44 H           5.5862    1.0525    0.0000 H       1  UNL1        0.0310
     45 H           4.7681    0.6840    0.0000 H       1  UNL1        0.0271
     46 H           3.9700    0.6994    0.0000 H       1  UNL1        0.0271
     47 H           9.9379   -0.4444    0.0000 H       1  UNL1        0.0272
     48 H          10.3397    0.2454    0.0000 H       1  UNL1        0.0272
     49 H           7.2306   -1.5044    0.0000 H       1  UNL1        0.0235
     50 H           8.1041   -1.5808    0.0000 H       1  UNL1        0.0235
     51 H           8.1805   -0.7074    0.0000 H       1  UNL1        0.0235
     52 H           7.0628    2.2802    0.0000 H       1  UNL1        0.0572
     53 H           3.4025   -2.0155    0.0000 H       1  UNL1        0.0599
     54 H           5.9145    0.6485    0.0000 H       1  UNL1        0.0235
     55 H           5.2993    1.2733    0.0000 H       1  UNL1        0.0235
     56 H           4.6745    0.6581    0.0000 H       1  UNL1        0.0235
     57 H           7.6884   -0.9916    0.0000 H       1  UNL1        0.0238
     58 H           8.4830   -1.3621    0.0000 H       1  UNL1        0.0238
     59 H           8.8535   -0.5674    0.0000 H       1  UNL1        0.0238
     60 H           3.2075    0.2747    0.0000 H       1  UNL1        0.0290
     61 H           2.8004   -0.4119    0.0000 H       1  UNL1        0.0290
     62 H           8.5752    3.3582    0.0000 H       1  UNL1        0.0276
     63 H           8.1894    2.6593    0.0000 H       1  UNL1        0.0276
     64 H          11.2101    2.0252    0.0000 H       1  UNL1        0.0599
     65 H          11.2835    2.6951    0.0000 H       1  UNL1        0.0295
     66 H          10.8817    3.3849    0.0000 H       1  UNL1        0.0295
     67 H           3.3702   -2.4093    0.0000 H       1  UNL1        0.0563
     68 H           3.3732   -3.2063    0.0000 H       1  UNL1        0.0563
     69 H           4.3109   -3.1142    0.0000 H       1  UNL1        0.0237
     70 H           5.1587   -3.3378    0.0000 H       1  UNL1        0.0237
     71 H           5.3824   -2.4900    0.0000 H       1  UNL1        0.0237
     72 H          10.2928    0.1483    0.0000 H       1  UNL1        0.0236
     73 H          11.1380    0.3818    0.0000 H       1  UNL1        0.0236
     74 H          10.9045    1.2270    0.0000 H       1  UNL1        0.0236
     75 H          10.7593    3.9044    0.0000 H       1  UNL1        0.0235
     76 H          10.5226    4.7487    0.0000 H       1  UNL1        0.0235
     77 H           9.6783    4.5120    0.0000 H       1  UNL1        0.0235
     78 H           9.7522    4.5128    0.0000 H       1  UNL1        0.0235
     79 H           8.9027    4.7299    0.0000 H       1  UNL1        0.0235
     80 H           8.6855    3.8804    0.0000 H       1  UNL1        0.0235
     81 H           2.0000   -1.5801    0.0000 H       1  UNL1        0.2098
     82 H          12.0748    1.5208    0.0000 H       1  UNL1        0.2098
     83 H           4.0421   -4.2082    0.0000 H       1  UNL1        0.2094
@<TRIPOS>BOND
     1    21     1    1
     2     1    81    1
     3    26     2    1
     4     2    82    1
     5     3    29    1
     6     3    83    1
     7     4     5    1
     8     4     7    1
     9     4     9    1
    10     4    19    1
    11     5     6    1
    12     5    16    1
    13     5    34    1
    14     6     8    1
    15     6    17    1
    16     6    22    1
    17     7    10    1
    18     7    15    1
    19     7    23    1
    20     8    12    1
    21     8    13    1
    22     8    35    1
    23     9    12    1
    24     9    36    1
    25     9    37    1
    26    10    11    1
    27    10    20    2
    28    11    14    1
    29    11    25    1
    30    11    38    1
    31    12    39    1
    32    12    40    1
    33    13    21    1
    34    13    29    1
    35    13    30    1
    36    14    18    1
    37    14    26    1
    38    14    31    1
    39    15    18    1
    40    15    41    1
    41    15    42    1
    42    16    20    1
    43    16    43    1
    44    16    44    1
    45    17    24    1
    46    17    45    1
    47    17    46    1
    48    18    47    1
    49    18    48    1
    50    19    49    1
    51    19    50    1
    52    19    51    1
    53    20    52    1
    54    21    24    1
    55    21    53    1
    56    22    54    1
    57    22    55    1
    58    22    56    1
    59    23    57    1
    60    23    58    1
    61    23    59    1
    62    24    60    1
    63    24    61    1
    64    25    27    1
    65    25    62    1
    66    25    63    1
    67    26    28    1
    68    26    64    1
    69    27    28    1
    70    27    32    1
    71    27    33    1
    72    28    65    1
    73    28    66    1
    74    29    67    1
    75    29    68    1
    76    30    69    1
    77    30    70    1
    78    30    71    1
    79    31    72    1
    80    31    73    1
    81    31    74    1
    82    32    75    1
    83    32    76    1
    84    32    77    1
    85    33    78    1
    86    33    79    1
    87    33    80    1
