@<TRIPOS>MOLECULE
IMPHY013630
 94 100 0 0 0
SMALL
GASTEIGER

@<TRIPOS>ATOM
      1 O           6.3730   -0.7026    0.0000 O.3     1  UNL1       -0.3877
      2 O           7.8906   -1.8714    0.0000 O.3     1  UNL1       -0.3790
      3 O           9.7132    1.8904    0.0000 O.3     1  UNL1       -0.3791
      4 O           5.9968    1.6388    0.0000 O.3     1  UNL1       -0.4571
      5 O          11.4641   -0.3798    0.0000 O.3     1  UNL1       -0.3910
      6 O           5.5956    2.3483    0.0000 O.3     1  UNL1       -0.3793
      7 O          10.5793   -2.3448    0.0000 O.3     1  UNL1       -0.3823
      8 O           5.8416   -0.0862    0.0000 O.2     1  UNL1       -0.2449
      9 O           2.2780   -0.6350    0.0000 O.3     1  UNL1       -0.4914
     10 O           1.4373    1.1797    0.0000 O.3     1  UNL1       -0.4915
     11 N          10.9086    0.0613    0.0000 N.3     1  UNL1       -0.2979
     12 C           8.9619    0.4566    0.0000 C.3     1  UNL1        0.0221
     13 C           8.9619   -0.4110    0.0000 C.3     1  UNL1        0.0067
     14 C           8.2836    0.9975    0.0000 C.3     1  UNL1       -0.0219
     15 C           9.9639    0.3505    0.0000 C.3     1  UNL1        0.0268
     16 C           7.4378   -0.7589    0.0000 C.3     1  UNL1        0.0310
     17 C           7.4378    0.8044    0.0000 C.3     1  UNL1        0.0293
     18 C           7.0614    0.0228    0.0000 C.3     1  UNL1        0.0815
     19 C           8.2836   -0.9519    0.0000 C.3     1  UNL1        0.0694
     20 C           9.7132   -0.8448    0.0000 C.3     1  UNL1        0.0386
     21 C           9.7132    0.8904    0.0000 C.3     1  UNL1        0.0683
     22 C           8.3614    1.8616    0.0000 C.3     1  UNL1       -0.0405
     23 C           7.5636    2.2026    0.0000 C.3     1  UNL1        0.0231
     24 C           6.9928    1.5492    0.0000 C.3     1  UNL1        0.1142
     25 C          10.9086   -0.6906    0.0000 C.3     1  UNL1        0.0097
     26 C           6.4164    0.2927    0.0000 C.3     1  UNL1        0.0035
     27 C          10.4646   -0.4110    0.0000 C.3     1  UNL1        0.0668
     28 C           6.4164    1.7772    0.0000 C.3     1  UNL1        0.0671
     29 C          10.4646    0.4566    0.0000 C.3     1  UNL1        0.0008
     30 C           9.7132   -1.8448    0.0000 C.3     1  UNL1        0.0568
     31 C          11.7125    0.6560    0.0000 C.3     1  UNL1       -0.0036
     32 C           8.4904   -2.6716    0.0000 C.3     1  UNL1        0.0368
     33 C          12.6295    0.2571    0.0000 C.3     1  UNL1       -0.0523
     34 C          10.5793    2.3904    0.0000 C.3     1  UNL1        0.0368
     35 C           5.4212    0.8211    0.0000 C.2     1  UNL1        0.3396
     36 C           5.6797    3.3448    0.0000 C.3     1  UNL1        0.0368
     37 C          10.5793   -3.3448    0.0000 C.3     1  UNL1        0.0365
     38 C           4.4252    0.9108    0.0000 C.ar    1  UNL1        0.0627
     39 C           3.8496    0.0931    0.0000 C.ar    1  UNL1       -0.0023
     40 C           4.0049    1.8181    0.0000 C.ar    1  UNL1       -0.0441
     41 C           2.8536    0.1827    0.0000 C.ar    1  UNL1        0.1623
     42 C           3.0089    1.9078    0.0000 C.ar    1  UNL1       -0.0155
     43 C           2.4333    1.0900    0.0000 C.ar    1  UNL1        0.1615
     44 C           1.2820   -0.5454    0.0000 C.3     1  UNL1        0.0790
     45 C           1.0169    2.0870    0.0000 C.3     1  UNL1        0.0790
     46 H           9.0254   -1.2586    0.0000 H       1  UNL1        0.0340
     47 H           9.0652    1.3316    0.0000 H       1  UNL1        0.0312
     48 H          10.2758    1.1412    0.0000 H       1  UNL1        0.0473
     49 H           6.9078   -1.4234    0.0000 H       1  UNL1        0.0369
     50 H           6.5886    0.7663    0.0000 H       1  UNL1        0.0368
     51 H           8.4840   -1.5386    0.0000 H       1  UNL1        0.0603
     52 H           9.1763    1.2004    0.0000 H       1  UNL1        0.0603
     53 H           8.5441    2.4540    0.0000 H       1  UNL1        0.0273
     54 H           8.9697    1.7418    0.0000 H       1  UNL1        0.0273
     55 H           7.5844    3.0523    0.0000 H       1  UNL1        0.0362
     56 H           6.7620    2.1246    0.0000 H       1  UNL1        0.0741
     57 H          11.5280   -0.6640    0.0000 H       1  UNL1        0.0434
     58 H          10.9615   -1.3083    0.0000 H       1  UNL1        0.0434
     59 H           6.2545   -0.3058    0.0000 H       1  UNL1        0.0318
     60 H           5.8018    0.3744    0.0000 H       1  UNL1        0.0318
     61 H          10.6344   -1.0073    0.0000 H       1  UNL1        0.0601
     62 H           6.4946    2.3923    0.0000 H       1  UNL1        0.0601
     63 H          10.6766    1.0392    0.0000 H       1  UNL1        0.0315
     64 H          11.0752    0.3489    0.0000 H       1  UNL1        0.0315
     65 H           9.5012   -2.4274    0.0000 H       1  UNL1        0.0566
     66 H           9.1027   -1.7371    0.0000 H       1  UNL1        0.0566
     67 H           6.2282   -1.3055    0.0000 H       1  UNL1        0.2102
     68 H          11.2629    1.0829    0.0000 H       1  UNL1        0.0424
     69 H          12.0548    1.1730    0.0000 H       1  UNL1        0.0424
     70 H          11.7907   -0.9068    0.0000 H       1  UNL1        0.2098
     71 H           8.9865   -2.2997    0.0000 H       1  UNL1        0.0524
     72 H           8.8623   -3.1677    0.0000 H       1  UNL1        0.0524
     73 H           7.9943   -3.0435    0.0000 H       1  UNL1        0.0524
     74 H          12.8768    0.8256    0.0000 H       1  UNL1        0.0242
     75 H          13.1981    0.0098    0.0000 H       1  UNL1        0.0242
     76 H          12.3822   -0.3114    0.0000 H       1  UNL1        0.0242
     77 H          10.2693    2.9273    0.0000 H       1  UNL1        0.0524
     78 H          11.1162    2.7004    0.0000 H       1  UNL1        0.0524
     79 H          10.8893    1.8534    0.0000 H       1  UNL1        0.0524
     80 H           5.0619    3.3970    0.0000 H       1  UNL1        0.0524
     81 H           5.7319    3.9626    0.0000 H       1  UNL1        0.0524
     82 H           6.2975    3.2926    0.0000 H       1  UNL1        0.0524
     83 H          11.1993   -3.3448    0.0000 H       1  UNL1        0.0523
     84 H          10.5793   -3.9648    0.0000 H       1  UNL1        0.0523
     85 H           9.9593   -3.3448    0.0000 H       1  UNL1        0.0523
     86 H           4.1102   -0.4695    0.0000 H       1  UNL1        0.0663
     87 H           4.3618    2.3251    0.0000 H       1  UNL1        0.0627
     88 H           2.7483    2.4703    0.0000 H       1  UNL1        0.0655
     89 H           1.2265   -1.1629    0.0000 H       1  UNL1        0.0660
     90 H           0.6645   -0.4898    0.0000 H       1  UNL1        0.0660
     91 H           1.3376    0.0721    0.0000 H       1  UNL1        0.0660
     92 H           0.4544    1.8264    0.0000 H       1  UNL1        0.0660
     93 H           0.7563    2.6496    0.0000 H       1  UNL1        0.0660
     94 H           1.5795    2.3477    0.0000 H       1  UNL1        0.0660
@<TRIPOS>BOND
     1    18     1    1
     2     1    67    1
     3    19     2    1
     4     2    32    1
     5    21     3    1
     6     3    34    1
     7    24     4    1
     8     4    35    1
     9    27     5    1
    10     5    70    1
    11    28     6    1
    12     6    36    1
    13     7    30    1
    14     7    37    1
    15     8    35    2
    16     9    41    1
    17     9    44    1
    18    10    43    1
    19    10    45    1
    20    11    15    1
    21    11    25    1
    22    11    31    1
    23    12    13    1
    24    12    14    1
    25    12    15    1
    26    12    21    1
    27    13    19    1
    28    13    20    1
    29    13    46    1
    30    14    17    1
    31    14    22    1
    32    14    47    1
    33    15    16    1
    34    15    48    1
    35    16    18    1
    36    16    19    1
    37    16    49    1
    38    17    18    1
    39    17    24    1
    40    17    50    1
    41    18    26    1
    42    19    51    1
    43    20    25    1
    44    20    27    1
    45    20    30    1
    46    21    29    1
    47    21    52    1
    48    22    23    1
    49    22    53    1
    50    22    54    1
    51    23    24    1
    52    23    28    1
    53    23    55    1
    54    24    56    1
    55    25    57    1
    56    25    58    1
    57    26    28    1
    58    26    59    1
    59    26    60    1
    60    27    29    1
    61    27    61    1
    62    28    62    1
    63    29    63    1
    64    29    64    1
    65    30    65    1
    66    30    66    1
    67    31    33    1
    68    31    68    1
    69    31    69    1
    70    32    71    1
    71    32    72    1
    72    32    73    1
    73    33    74    1
    74    33    75    1
    75    33    76    1
    76    34    77    1
    77    34    78    1
    78    34    79    1
    79    35    38    1
    80    36    80    1
    81    36    81    1
    82    36    82    1
    83    37    83    1
    84    37    84    1
    85    37    85    1
    86    38    39   ar
    87    38    40   ar
    88    39    41   ar
    89    39    86    1
    90    40    42   ar
    91    40    87    1
    92    41    43   ar
    93    42    43   ar
    94    42    88    1
    95    44    89    1
    96    44    90    1
    97    44    91    1
    98    45    92    1
    99    45    93    1
   100    45    94    1
