@<TRIPOS>MOLECULE
IMPHY014664
 74 79 0 0 0
SMALL
GASTEIGER

@<TRIPOS>ATOM
      1 O           4.4590   -0.7535    0.0000 O.3     1  UNL1       -0.4600
      2 O           6.8954    0.2980    0.0000 O.3     1  UNL1       -0.4674
      3 O           5.1663    0.1969    0.0000 O.2     1  UNL1       -0.2500
      4 O           2.7996   -0.2571    0.0000 O.2     1  UNL1       -0.2450
      5 O           2.9730    3.3442    0.0000 O.3     1  UNL1       -0.4913
      6 O           6.2918    2.3514    0.0000 O.3     1  UNL1       -0.4913
      7 O           4.9190    3.8058    0.0000 O.3     1  UNL1       -0.4885
      8 N           8.0879   -2.3580    0.0000 N.3     1  UNL1       -0.2903
      9 N           6.0407   -3.2940    0.0000 N.2     1  UNL1       -0.2537
     10 C           6.4574   -2.0114    0.0000 C.3     1  UNL1        0.0580
     11 C           6.1184   -1.2500    0.0000 C.3     1  UNL1        0.1228
     12 C           8.6030   -3.9434    0.0000 C.3     1  UNL1        0.0032
     13 C           7.5302   -2.9774    0.0000 C.3     1  UNL1        0.0506
     14 C           6.7150   -2.8041    0.0000 C.2     1  UNL1        0.0484
     15 C           7.7878   -3.7701    0.0000 C.3     1  UNL1       -0.0243
     16 C           7.0151   -1.3920    0.0000 C.3     1  UNL1       -0.0240
     17 C           7.8304   -1.5653    0.0000 C.3     1  UNL1        0.0010
     18 C           5.6239   -2.0114    0.0000 C.ar    1  UNL1       -0.0091
     19 C           9.1608   -3.3240    0.0000 C.2     1  UNL1       -0.0554
     20 C           8.9032   -2.5313    0.0000 C.3     1  UNL1        0.0209
     21 C           5.4320   -0.5228    0.0000 C.3     1  UNL1        0.1102
     22 C           6.0600   -0.2517    0.0000 C.2     1  UNL1        0.3182
     23 C           5.3664   -2.8041    0.0000 C.ar    1  UNL1        0.0680
     24 C           5.0144   -1.2540    0.0000 C.ar    1  UNL1       -0.0556
     25 C          10.1389   -3.5319    0.0000 C.2     1  UNL1       -0.0864
     26 C           4.4280   -3.0586    0.0000 C.ar    1  UNL1       -0.0360
     27 C           4.0581   -1.4297    0.0000 C.ar    1  UNL1       -0.0613
     28 C          10.4479   -4.4830    0.0000 C.3     1  UNL1       -0.0465
     29 C           3.7576   -2.3544    0.0000 C.ar    1  UNL1       -0.0597
     30 C           3.7726   -0.0264    0.0000 C.2     1  UNL1        0.3395
     31 C           6.8370    1.2963    0.0000 C.3     1  UNL1        0.0817
     32 C           4.0592    0.9317    0.0000 C.ar    1  UNL1        0.0661
     33 C           5.0322    1.1625    0.0000 C.ar    1  UNL1       -0.0021
     34 C           3.3728    1.6589    0.0000 C.ar    1  UNL1       -0.0021
     35 C           3.6594    2.6169    0.0000 C.ar    1  UNL1        0.1660
     36 C           5.3188    2.1205    0.0000 C.ar    1  UNL1        0.1660
     37 C           4.6324    2.8478    0.0000 C.ar    1  UNL1        0.2035
     38 C           2.0000    3.1133    0.0000 C.3     1  UNL1        0.0790
     39 C           6.5784    3.3094    0.0000 C.3     1  UNL1        0.0790
     40 C           4.2326    4.5330    0.0000 C.3     1  UNL1        0.0791
     41 H           8.8657   -4.7518    0.0000 H       1  UNL1        0.0359
     42 H           6.9319   -3.5812    0.0000 H       1  UNL1        0.0525
     43 H           7.1738   -3.8564    0.0000 H       1  UNL1        0.0290
     44 H           7.7662   -4.3897    0.0000 H       1  UNL1        0.0290
     45 H           7.2474   -0.8172    0.0000 H       1  UNL1        0.0290
     46 H           6.4893   -1.0635    0.0000 H       1  UNL1        0.0290
     47 H           8.4443   -1.4790    0.0000 H       1  UNL1        0.0427
     48 H           7.8520   -0.9457    0.0000 H       1  UNL1        0.0427
     49 H           9.5172   -2.4450    0.0000 H       1  UNL1        0.0473
     50 H           8.9248   -1.9117    0.0000 H       1  UNL1        0.0473
     51 H           5.9499   -0.1820    0.0000 H       1  UNL1        0.0709
     52 H           5.1863    0.0465    0.0000 H       1  UNL1        0.0709
     53 H           5.2303   -0.6728    0.0000 H       1  UNL1        0.0621
     54 H          10.5538   -3.0712    0.0000 H       1  UNL1        0.0569
     55 H           4.2610   -3.6557    0.0000 H       1  UNL1        0.0639
     56 H           3.6496   -0.9632    0.0000 H       1  UNL1        0.0618
     57 H           9.8583   -4.6746    0.0000 H       1  UNL1        0.0272
     58 H          10.6395   -5.0726    0.0000 H       1  UNL1        0.0272
     59 H          11.0376   -4.2914    0.0000 H       1  UNL1        0.0272
     60 H           3.1530   -2.4917    0.0000 H       1  UNL1        0.0618
     61 H           7.4560    1.3324    0.0000 H       1  UNL1        0.0661
     62 H           6.8009    1.9152    0.0000 H       1  UNL1        0.0661
     63 H           6.2181    1.2601    0.0000 H       1  UNL1        0.0661
     64 H           5.4578    0.7116    0.0000 H       1  UNL1        0.0663
     65 H           2.7695    1.5158    0.0000 H       1  UNL1        0.0663
     66 H           1.8569    3.7166    0.0000 H       1  UNL1        0.0660
     67 H           1.3967    2.9702    0.0000 H       1  UNL1        0.0660
     68 H           2.1431    2.5101    0.0000 H       1  UNL1        0.0660
     69 H           7.1724    3.1317    0.0000 H       1  UNL1        0.0660
     70 H           6.7561    3.9034    0.0000 H       1  UNL1        0.0660
     71 H           5.9844    3.4871    0.0000 H       1  UNL1        0.0660
     72 H           4.6835    4.9586    0.0000 H       1  UNL1        0.0660
     73 H           3.8070    4.9839    0.0000 H       1  UNL1        0.0660
     74 H           3.7817    4.1075    0.0000 H       1  UNL1        0.0660
@<TRIPOS>BOND
     1     1    21    1
     2     1    30    1
     3     2    22    1
     4     2    31    1
     5     3    22    2
     6     4    30    2
     7     5    35    1
     8     5    38    1
     9     6    36    1
    10     6    39    1
    11     7    37    1
    12     7    40    1
    13     8    13    1
    14     8    17    1
    15     8    20    1
    16     9    14    2
    17     9    23    1
    18    10    11    1
    19    10    14    1
    20    10    16    1
    21    10    18    1
    22    11    12    1
    23    11    21    1
    24    11    22    1
    25    12    15    1
    26    12    19    1
    27    12    41    1
    28    13    14    1
    29    13    15    1
    30    13    42    1
    31    15    43    1
    32    15    44    1
    33    16    17    1
    34    16    45    1
    35    16    46    1
    36    17    47    1
    37    17    48    1
    38    18    23   ar
    39    18    24   ar
    40    19    20    1
    41    19    25    2
    42    20    49    1
    43    20    50    1
    44    21    51    1
    45    21    52    1
    46    23    26   ar
    47    24    27   ar
    48    24    53    1
    49    25    28    1
    50    25    54    1
    51    26    29   ar
    52    26    55    1
    53    27    29   ar
    54    27    56    1
    55    28    57    1
    56    28    58    1
    57    28    59    1
    58    29    60    1
    59    30    32    1
    60    31    61    1
    61    31    62    1
    62    31    63    1
    63    32    33   ar
    64    32    34   ar
    65    33    36   ar
    66    33    64    1
    67    34    35   ar
    68    34    65    1
    69    35    37   ar
    70    36    37   ar
    71    38    66    1
    72    38    67    1
    73    38    68    1
    74    39    69    1
    75    39    70    1
    76    39    71    1
    77    40    72    1
    78    40    73    1
    79    40    74    1
