@<TRIPOS>MOLECULE
IMPHY012547
 52 54 0 0 0
SMALL
GASTEIGER

@<TRIPOS>ATOM
      1 O           6.8671   -1.0950    0.0000 O.3     1  UNL1       -0.3093
      2 O           6.0010    0.4050    0.0000 O.2     1  UNL1       -0.4699
      3 O           5.1350   -1.0950    0.0000 O.3     1  UNL1       -0.3404
      4 O           8.9900    2.6602    0.0000 O.3     1  UNL1       -0.3871
      5 O           6.8671   -3.0950    0.0000 O.3     1  UNL1       -0.3841
      6 O           5.1350   -4.0950    0.0000 O.3     1  UNL1       -0.3864
      7 O           3.4030   -3.0950    0.0000 O.3     1  UNL1       -0.3865
      8 O           9.9685   -1.0565    0.0000 O.3     1  UNL1       -0.3907
      9 O           6.0010    3.4050    0.0000 O.3     1  UNL1       -0.4646
     10 O           2.5369   -1.5950    0.0000 O.3     1  UNL1       -0.3924
     11 O           7.7331    3.4050    0.0000 O.2     1  UNL1       -0.2452
     12 C           7.7331    0.4050    0.0000 C.3     1  UNL1        0.0546
     13 C           7.7331    1.4050    0.0000 C.3     1  UNL1        0.0357
     14 C           6.8671   -0.0950    0.0000 C.3     1  UNL1        0.2106
     15 C           8.6793    1.7097    0.0000 C.3     1  UNL1        0.0815
     16 C           8.6793    0.1003    0.0000 C.2     1  UNL1       -0.0363
     17 C           9.2629    0.9050    0.0000 C.2     1  UNL1       -0.0534
     18 C           6.8671    1.9050    0.0000 C.2     1  UNL1        0.0773
     19 C           6.0010   -1.5950    0.0000 C.3     1  UNL1        0.1918
     20 C           6.0010   -2.5950    0.0000 C.3     1  UNL1        0.1342
     21 C           5.1350   -3.0950    0.0000 C.3     1  UNL1        0.1141
     22 C           4.2690   -2.5950    0.0000 C.3     1  UNL1        0.1119
     23 C           4.2690   -1.5950    0.0000 C.3     1  UNL1        0.1130
     24 C           8.9900   -0.8503    0.0000 C.3     1  UNL1        0.0659
     25 C           6.0010    1.4050    0.0000 C.2     1  UNL1        0.0982
     26 C           3.4030   -1.0950    0.0000 C.3     1  UNL1        0.0730
     27 C           6.8671    2.9050    0.0000 C.2     1  UNL1        0.3382
     28 C           6.0010    4.4050    0.0000 C.3     1  UNL1        0.0820
     29 H           7.8230   -0.4402    0.0000 H       1  UNL1        0.0414
     30 H           7.8230    2.2502    0.0000 H       1  UNL1        0.0388
     31 H           7.4040   -0.4050    0.0000 H       1  UNL1        0.1062
     32 H           8.2418    2.1491    0.0000 H       1  UNL1        0.0644
     33 H           9.8829    0.9050    0.0000 H       1  UNL1        0.0598
     34 H           6.0010   -0.9750    0.0000 H       1  UNL1        0.0939
     35 H           6.0010   -3.2150    0.0000 H       1  UNL1        0.0671
     36 H           4.5981   -3.4050    0.0000 H       1  UNL1        0.0648
     37 H           4.2690   -3.2150    0.0000 H       1  UNL1        0.0647
     38 H           4.2690   -0.9750    0.0000 H       1  UNL1        0.0647
     39 H           8.3762   -0.9376    0.0000 H       1  UNL1        0.0604
     40 H           8.9694   -1.4699    0.0000 H       1  UNL1        0.0604
     41 H           5.4641    1.7150    0.0000 H       1  UNL1        0.1029
     42 H           9.5966    2.7881    0.0000 H       1  UNL1        0.2102
     43 H           3.8015   -0.6201    0.0000 H       1  UNL1        0.0584
     44 H           3.0044   -0.6201    0.0000 H       1  UNL1        0.0584
     45 H           6.8671   -3.7150    0.0000 H       1  UNL1        0.2101
     46 H           4.5981   -4.4050    0.0000 H       1  UNL1        0.2100
     47 H           3.4030   -3.7150    0.0000 H       1  UNL1        0.2100
     48 H          10.1611   -1.6458    0.0000 H       1  UNL1        0.2098
     49 H           2.0000   -1.2850    0.0000 H       1  UNL1        0.2095
     50 H           6.6210    4.4050    0.0000 H       1  UNL1        0.0661
     51 H           6.0010    5.0250    0.0000 H       1  UNL1        0.0661
     52 H           5.3810    4.4050    0.0000 H       1  UNL1        0.0661
@<TRIPOS>BOND
     1    14     1    1
     2    19     1    1
     3     2    14    1
     4     2    25    1
     5     3    19    1
     6     3    23    1
     7    15     4    1
     8     4    42    1
     9    20     5    1
    10     5    45    1
    11    21     6    1
    12     6    46    1
    13    22     7    1
    14     7    47    1
    15     8    24    1
    16     8    48    1
    17     9    27    1
    18     9    28    1
    19    10    26    1
    20    10    49    1
    21    11    27    2
    22    12    13    1
    23    12    14    1
    24    12    16    1
    25    12    29    1
    26    13    15    1
    27    13    18    1
    28    13    30    1
    29    14    31    1
    30    15    17    1
    31    15    32    1
    32    16    17    2
    33    16    24    1
    34    17    33    1
    35    18    25    2
    36    18    27    1
    37    19    20    1
    38    19    34    1
    39    20    21    1
    40    20    35    1
    41    21    22    1
    42    21    36    1
    43    22    23    1
    44    22    37    1
    45    23    26    1
    46    23    38    1
    47    24    39    1
    48    24    40    1
    49    25    41    1
    50    26    43    1
    51    26    44    1
    52    28    50    1
    53    28    51    1
    54    28    52    1
