@<TRIPOS>MOLECULE
IMPHY008624
 58 61 0 0 0
SMALL
GASTEIGER

@<TRIPOS>ATOM
      1 O          10.4586    0.0493    0.0000 O.3     1  UNL1       -0.3911
      2 O           2.5357   -2.5030    0.0000 O.3     1  UNL1       -0.3918
      3 O           8.5179    2.5489    0.0000 O.2     1  UNL1       -0.2973
      4 C           7.0628   -0.9507    0.0000 C.3     1  UNL1       -0.0343
      5 C           6.1968   -0.4507    0.0000 C.3     1  UNL1       -0.0323
      6 C           7.9288   -0.4507    0.0000 C.3     1  UNL1       -0.0295
      7 C           7.9288    0.5493    0.0000 C.3     1  UNL1       -0.0170
      8 C           5.2868   -0.9575    0.0000 C.3     1  UNL1       -0.0260
      9 C           5.2787   -1.9991    0.0000 C.3     1  UNL1       -0.0330
     10 C           6.1968    0.5493    0.0000 C.3     1  UNL1       -0.0489
     11 C           7.0628    1.0493    0.0000 C.3     1  UNL1       -0.0464
     12 C           8.8750    0.8540    0.0000 C.3     1  UNL1        0.0488
     13 C           7.0789   -1.9922    0.0000 C.3     1  UNL1       -0.0494
     14 C           8.8750   -0.7554    0.0000 C.3     1  UNL1       -0.0226
     15 C           6.1808   -2.5200    0.0000 C.3     1  UNL1       -0.0494
     16 C           9.4586    0.0493    0.0000 C.3     1  UNL1        0.0655
     17 C           4.3599   -0.3935    0.0000 C.3     1  UNL1       -0.0448
     18 C           4.3433   -2.5489    0.0000 C.3     1  UNL1       -0.0235
     19 C           7.9288    1.5493    0.0000 C.3     1  UNL1       -0.0586
     20 C           5.2945    0.0424    0.0000 C.3     1  UNL1       -0.0590
     21 C           3.4120   -0.9214    0.0000 C.3     1  UNL1       -0.0263
     22 C           3.4037   -2.0064    0.0000 C.3     1  UNL1        0.0555
     23 C           9.1857    1.8046    0.0000 C.2     1  UNL1        0.1363
     24 C          10.1642    2.0108    0.0000 C.3     1  UNL1       -0.0057
     25 H           7.6021   -1.2565    0.0000 H       1  UNL1        0.0306
     26 H           6.7337   -0.1407    0.0000 H       1  UNL1        0.0309
     27 H           7.9944   -1.0672    0.0000 H       1  UNL1        0.0310
     28 H           5.2811   -2.6191    0.0000 H       1  UNL1        0.0307
     29 H           5.9847    1.1319    0.0000 H       1  UNL1        0.0268
     30 H           5.5862    0.4416    0.0000 H       1  UNL1        0.0268
     31 H           7.4613    1.5243    0.0000 H       1  UNL1        0.0271
     32 H           6.6643    1.5243    0.0000 H       1  UNL1        0.0271
     33 H           9.4875    0.9502    0.0000 H       1  UNL1        0.0408
     34 H           7.2969   -2.5726    0.0000 H       1  UNL1        0.0268
     35 H           7.6880   -1.8767    0.0000 H       1  UNL1        0.0268
     36 H           8.6240   -1.3223    0.0000 H       1  UNL1        0.0293
     37 H           9.4124   -1.0647    0.0000 H       1  UNL1        0.0293
     38 H           5.7835   -2.9959    0.0000 H       1  UNL1        0.0268
     39 H           6.5818   -2.9928    0.0000 H       1  UNL1        0.0268
     40 H           9.7404   -0.5030    0.0000 H       1  UNL1        0.0600
     41 H           4.7681    0.0732    0.0000 H       1  UNL1        0.0271
     42 H           3.9700    0.0886    0.0000 H       1  UNL1        0.0271
     43 H           3.9460   -3.0248    0.0000 H       1  UNL1        0.0293
     44 H           4.7443   -3.0218    0.0000 H       1  UNL1        0.0293
     45 H           8.5488    1.5493    0.0000 H       1  UNL1        0.0235
     46 H           7.9288    2.1693    0.0000 H       1  UNL1        0.0235
     47 H           7.3088    1.5493    0.0000 H       1  UNL1        0.0235
     48 H           5.9145    0.0377    0.0000 H       1  UNL1        0.0235
     49 H           5.2993    0.6624    0.0000 H       1  UNL1        0.0235
     50 H           4.6745    0.0472    0.0000 H       1  UNL1        0.0235
     51 H           3.2075   -0.3361    0.0000 H       1  UNL1        0.0290
     52 H           2.8004   -1.0228    0.0000 H       1  UNL1        0.0290
     53 H           3.4025   -2.6264    0.0000 H       1  UNL1        0.0593
     54 H          10.7687   -0.4876    0.0000 H       1  UNL1        0.2098
     55 H          10.2921    1.4041    0.0000 H       1  UNL1        0.0306
     56 H          10.7709    2.1386    0.0000 H       1  UNL1        0.0306
     57 H          10.0364    2.6174    0.0000 H       1  UNL1        0.0306
     58 H           2.0000   -2.1910    0.0000 H       1  UNL1        0.2098
@<TRIPOS>BOND
     1     1    16    1
     2     1    54    1
     3     2    22    1
     4     2    58    1
     5     3    23    2
     6     4     5    1
     7     4     6    1
     8     4    13    1
     9     4    25    1
    10     5     8    1
    11     5    10    1
    12     5    26    1
    13     6     7    1
    14     6    14    1
    15     6    27    1
    16     7    11    1
    17     7    12    1
    18     7    19    1
    19     8     9    1
    20     8    17    1
    21     8    20    1
    22     9    15    1
    23     9    18    1
    24     9    28    1
    25    10    11    1
    26    10    29    1
    27    10    30    1
    28    11    31    1
    29    11    32    1
    30    12    16    1
    31    12    23    1
    32    12    33    1
    33    13    15    1
    34    13    34    1
    35    13    35    1
    36    14    16    1
    37    14    36    1
    38    14    37    1
    39    15    38    1
    40    15    39    1
    41    16    40    1
    42    17    21    1
    43    17    41    1
    44    17    42    1
    45    18    22    1
    46    18    43    1
    47    18    44    1
    48    19    45    1
    49    19    46    1
    50    19    47    1
    51    20    48    1
    52    20    49    1
    53    20    50    1
    54    21    22    1
    55    21    51    1
    56    21    52    1
    57    22    53    1
    58    23    24    1
    59    24    55    1
    60    24    56    1
    61    24    57    1
