@<TRIPOS>MOLECULE
IMPHY007578
 183 191 0 0 0
SMALL
GASTEIGER

@<TRIPOS>ATOM
      1 O           6.8671   -5.7722    0.0000 O.3     1  UNL1       -0.3448
      2 O           8.6424    3.5822    0.0000 O.3     1  UNL1       -0.3423
      3 O           6.8270    4.6211    0.0000 O.3     1  UNL1       -0.3887
      4 O           9.3112   -5.0806    0.0000 O.3     1  UNL1       -0.3944
      5 O           5.1350   -5.7722    0.0000 O.3     1  UNL1       -0.3315
      6 O           7.7764    5.0822    0.0000 O.3     1  UNL1       -0.3461
      7 O           6.8671   -7.7722    0.0000 O.3     1  UNL1       -0.3378
      8 O          10.3745    4.5822    0.0000 O.3     1  UNL1       -0.3841
      9 O           5.1350   -8.7722    0.0000 O.3     1  UNL1       -0.3864
     10 O          10.3745    6.5822    0.0000 O.3     1  UNL1       -0.3390
     11 O           3.4030   -7.7722    0.0000 O.3     1  UNL1       -0.3860
     12 O           8.6424    7.5822    0.0000 O.3     1  UNL1       -0.3868
     13 O           6.0010   -9.2722    0.0000 O.3     1  UNL1       -0.3405
     14 O           2.5369   -6.2722    0.0000 O.3     1  UNL1       -0.4788
     15 O           3.4030   -4.7722    0.0000 O.2     1  UNL1       -0.2480
     16 O           9.5085    8.0822    0.0000 O.3     1  UNL1       -0.3372
     17 O           8.5991   -8.7722    0.0000 O.3     1  UNL1       -0.3841
     18 O           8.5991  -10.7723    0.0000 O.3     1  UNL1       -0.3864
     19 O          12.1066    7.5822    0.0000 O.3     1  UNL1       -0.4525
     20 O           6.8671  -11.7723    0.0000 O.3     1  UNL1       -0.3865
     21 O          12.1066    9.5822    0.0000 O.3     1  UNL1       -0.4537
     22 O          10.3745   10.5823    0.0000 O.3     1  UNL1       -0.4549
     23 O           5.1350  -11.7723    0.0000 O.3     1  UNL1       -0.3924
     24 O           7.7764    9.0822    0.0000 O.3     1  UNL1       -0.4621
     25 O          12.9726    9.0822    0.0000 O.2     1  UNL1       -0.2512
     26 O          11.2405   11.0823    0.0000 O.2     1  UNL1       -0.2512
     27 O           8.6424   10.5823    0.0000 O.2     1  UNL1       -0.2512
     28 O           6.9104   10.5823    0.0000 O.2     1  UNL1       -0.2512
     29 C           7.7681   -1.0720    0.0000 C.3     1  UNL1       -0.0194
     30 C           6.9040   -1.5754    0.0000 C.3     1  UNL1       -0.0257
     31 C           6.8920   -2.6169    0.0000 C.3     1  UNL1       -0.0249
     32 C           7.7643   -0.0720    0.0000 C.3     1  UNL1       -0.0051
     33 C           7.7920   -3.1412    0.0000 C.3     1  UNL1       -0.0255
     34 C           8.6801   -1.5754    0.0000 C.3     1  UNL1       -0.0463
     35 C           6.8963    0.4246    0.0000 C.2     1  UNL1       -0.0633
     36 C           6.8762    1.4661    0.0000 C.3     1  UNL1       -0.0110
     37 C           8.6921   -2.6169    0.0000 C.3     1  UNL1       -0.0485
     38 C           7.8046   -4.2261    0.0000 C.3     1  UNL1        0.0206
     39 C           7.7722    1.9973    0.0000 C.3     1  UNL1        0.0033
     40 C           8.6723    0.4383    0.0000 C.3     1  UNL1       -0.0428
     41 C           6.0361   -1.0787    0.0000 C.3     1  UNL1       -0.0306
     42 C           5.9421   -3.1412    0.0000 C.3     1  UNL1       -0.0447
     43 C           8.6763    1.4799    0.0000 C.3     1  UNL1       -0.0438
     44 C           8.7522   -0.8946    0.0000 C.3     1  UNL1       -0.0585
     45 C           6.8671   -4.7722    0.0000 C.3     1  UNL1        0.0695
     46 C           6.0322   -0.0787    0.0000 C.2     1  UNL1       -0.0836
     47 C           6.0279   -2.1136    0.0000 C.3     1  UNL1       -0.0590
     48 C           5.9295   -4.2261    0.0000 C.3     1  UNL1       -0.0254
     49 C           8.7497   -0.2419    0.0000 C.3     1  UNL1       -0.0553
     50 C           5.9223    1.9830    0.0000 C.3     1  UNL1       -0.0383
     51 C           7.7764    3.0822    0.0000 C.3     1  UNL1        0.0940
     52 C           5.9014    3.0678    0.0000 C.3     1  UNL1       -0.0059
     53 C           6.8347    3.6211    0.0000 C.3     1  UNL1        0.0870
     54 C           8.8046   -4.2184    0.0000 C.3     1  UNL1        0.0522
     55 C           8.3113   -5.0883    0.0000 C.3     1  UNL1       -0.0548
     56 C           8.6324    2.5072    0.0000 C.3     1  UNL1       -0.0566
     57 C           4.9015    3.0524    0.0000 C.3     1  UNL1       -0.0574
     58 C           5.3881    3.9260    0.0000 C.3     1  UNL1       -0.0574
     59 C           6.0010   -6.2722    0.0000 C.3     1  UNL1        0.1892
     60 C           8.6424    4.5822    0.0000 C.3     1  UNL1        0.1879
     61 C           6.0010   -7.2722    0.0000 C.3     1  UNL1        0.1407
     62 C           9.5085    5.0822    0.0000 C.3     1  UNL1        0.1345
     63 C           5.1350   -7.7722    0.0000 C.3     1  UNL1        0.1149
     64 C           9.5085    6.0822    0.0000 C.3     1  UNL1        0.1203
     65 C           4.2690   -6.2722    0.0000 C.3     1  UNL1        0.1859
     66 C           4.2690   -7.2722    0.0000 C.3     1  UNL1        0.1202
     67 C           7.7764    6.0822    0.0000 C.3     1  UNL1        0.0792
     68 C           8.6424    6.5822    0.0000 C.3     1  UNL1        0.1073
     69 C           6.8671   -8.7722    0.0000 C.3     1  UNL1        0.1885
     70 C           3.4030   -5.7722    0.0000 C.2     1  UNL1        0.3367
     71 C           7.7331   -9.2722    0.0000 C.3     1  UNL1        0.1341
     72 C          10.3745    7.5822    0.0000 C.3     1  UNL1        0.2009
     73 C           7.7331  -10.2723    0.0000 C.3     1  UNL1        0.1141
     74 C          11.2405    8.0822    0.0000 C.3     1  UNL1        0.1936
     75 C           6.0010  -10.2723    0.0000 C.3     1  UNL1        0.1130
     76 C           6.8671  -10.7723    0.0000 C.3     1  UNL1        0.1119
     77 C          11.2405    9.0822    0.0000 C.3     1  UNL1        0.1836
     78 C           9.5085    9.0822    0.0000 C.3     1  UNL1        0.1361
     79 C          10.3745    9.5822    0.0000 C.3     1  UNL1        0.1726
     80 C           5.1350  -10.7723    0.0000 C.3     1  UNL1        0.0730
     81 C           8.6424    9.5822    0.0000 C.3     1  UNL1        0.1222
     82 C          12.9726    8.0822    0.0000 C.2     1  UNL1        0.3045
     83 C          12.1066   10.5823    0.0000 C.2     1  UNL1        0.3044
     84 C           9.5085   11.0823    0.0000 C.2     1  UNL1        0.3044
     85 C          13.8386    7.5822    0.0000 C.3     1  UNL1        0.0332
     86 C          12.9726   11.0823    0.0000 C.3     1  UNL1        0.0332
     87 C           6.9104    9.5822    0.0000 C.2     1  UNL1        0.3040
     88 C           9.5085   12.0823    0.0000 C.3     1  UNL1        0.0332
     89 C           6.0444    9.0822    0.0000 C.3     1  UNL1        0.0332
     90 H           7.4398   -1.8874    0.0000 H       1  UNL1        0.0315
     91 H           8.3314   -3.4471    0.0000 H       1  UNL1        0.0313
     92 H           9.2921   -1.6744    0.0000 H       1  UNL1        0.0271
     93 H           8.8824   -0.9893    0.0000 H       1  UNL1        0.0271
     94 H           6.3466    1.1437    0.0000 H       1  UNL1        0.0352
     95 H           8.9079   -3.1982    0.0000 H       1  UNL1        0.0268
     96 H           9.3017   -2.5038    0.0000 H       1  UNL1        0.0268
     97 H           8.8791   -0.1462    0.0000 H       1  UNL1        0.0274
     98 H           9.2836    0.5420    0.0000 H       1  UNL1        0.0274
     99 H           5.4251   -0.9734    0.0000 H       1  UNL1        0.0310
    100 H           5.8263   -1.6621    0.0000 H       1  UNL1        0.0310
    101 H           5.7398   -2.5551    0.0000 H       1  UNL1        0.0271
    102 H           5.3300   -3.2402    0.0000 H       1  UNL1        0.0271
    103 H           9.2868    1.3715    0.0000 H       1  UNL1        0.0272
    104 H           8.8876    2.0628    0.0000 H       1  UNL1        0.0272
    105 H           8.8623   -1.5048    0.0000 H       1  UNL1        0.0235
    106 H           9.3624   -0.7846    0.0000 H       1  UNL1        0.0235
    107 H           8.6422   -0.2844    0.0000 H       1  UNL1        0.0235
    108 H           7.4046   -5.0812    0.0000 H       1  UNL1        0.0603
    109 H           5.4941    0.2292    0.0000 H       1  UNL1        0.0572
    110 H           6.3400   -1.5779    0.0000 H       1  UNL1        0.0235
    111 H           5.4922   -1.8015    0.0000 H       1  UNL1        0.0235
    112 H           5.7158   -2.6493    0.0000 H       1  UNL1        0.0235
    113 H           5.3199   -4.1130    0.0000 H       1  UNL1        0.0290
    114 H           5.7137   -4.8074    0.0000 H       1  UNL1        0.0290
    115 H           8.6444   -0.8529    0.0000 H       1  UNL1        0.0238
    116 H           9.3607   -0.3472    0.0000 H       1  UNL1        0.0238
    117 H           8.8550    0.3691    0.0000 H       1  UNL1        0.0238
    118 H           5.3095    2.0773    0.0000 H       1  UNL1        0.0277
    119 H           5.7246    1.3954    0.0000 H       1  UNL1        0.0277
    120 H           8.3128    2.7712    0.0000 H       1  UNL1        0.0629
    121 H           7.3698    3.9342    0.0000 H       1  UNL1        0.0625
    122 H           9.3855   -4.0019    0.0000 H       1  UNL1        0.0563
    123 H           8.6922   -3.6087    0.0000 H       1  UNL1        0.0563
    124 H           7.7767   -5.4024    0.0000 H       1  UNL1        0.0237
    125 H           8.6254   -5.6228    0.0000 H       1  UNL1        0.0237
    126 H           8.8458   -4.7742    0.0000 H       1  UNL1        0.0237
    127 H           8.9486    1.9739    0.0000 H       1  UNL1        0.0236
    128 H           9.1657    2.8234    0.0000 H       1  UNL1        0.0236
    129 H           8.3162    3.0406    0.0000 H       1  UNL1        0.0236
    130 H           4.8920    3.6723    0.0000 H       1  UNL1        0.0236
    131 H           4.2816    3.0428    0.0000 H       1  UNL1        0.0236
    132 H           4.9111    2.4325    0.0000 H       1  UNL1        0.0236
    133 H           5.9202    4.2442    0.0000 H       1  UNL1        0.0236
    134 H           5.0699    4.4581    0.0000 H       1  UNL1        0.0236
    135 H           4.8560    3.6078    0.0000 H       1  UNL1        0.0236
    136 H           6.2877    4.9270    0.0000 H       1  UNL1        0.2099
    137 H           6.0010   -5.6523    0.0000 H       1  UNL1        0.0938
    138 H           9.9312   -5.0758    0.0000 H       1  UNL1        0.2094
    139 H           8.1055    4.2722    0.0000 H       1  UNL1        0.0937
    140 H           6.0010   -7.8922    0.0000 H       1  UNL1        0.0675
    141 H          10.0454    5.3922    0.0000 H       1  UNL1        0.0671
    142 H           4.5981   -8.0822    0.0000 H       1  UNL1        0.0648
    143 H           9.5085    6.7022    0.0000 H       1  UNL1        0.0651
    144 H           4.2690   -5.6523    0.0000 H       1  UNL1        0.0741
    145 H           3.7320   -6.9622    0.0000 H       1  UNL1        0.0652
    146 H           7.5644    6.6649    0.0000 H       1  UNL1        0.0587
    147 H           7.1658    5.9746    0.0000 H       1  UNL1        0.0587
    148 H           8.1055    6.8922    0.0000 H       1  UNL1        0.0643
    149 H          10.9114    4.8922    0.0000 H       1  UNL1        0.2101
    150 H           7.4040   -8.4622    0.0000 H       1  UNL1        0.0938
    151 H           4.5981   -9.0822    0.0000 H       1  UNL1        0.2100
    152 H           3.4030   -8.3922    0.0000 H       1  UNL1        0.2100
    153 H           8.1055    7.8922    0.0000 H       1  UNL1        0.2100
    154 H           8.2700   -9.5822    0.0000 H       1  UNL1        0.0671
    155 H           9.8376    7.2722    0.0000 H       1  UNL1        0.0950
    156 H           7.7331  -10.8923    0.0000 H       1  UNL1        0.0648
    157 H          11.7775    8.3922    0.0000 H       1  UNL1        0.0825
    158 H           5.4641   -9.9622    0.0000 H       1  UNL1        0.0647
    159 H           2.0000   -5.9622    0.0000 H       1  UNL1        0.2951
    160 H           6.3301  -11.0823    0.0000 H       1  UNL1        0.0647
    161 H          11.2405    9.7022    0.0000 H       1  UNL1        0.0812
    162 H           9.1360   -9.0822    0.0000 H       1  UNL1        0.2101
    163 H           8.9715    8.7722    0.0000 H       1  UNL1        0.0670
    164 H           9.8376    9.8922    0.0000 H       1  UNL1        0.0801
    165 H           4.9230  -10.1896    0.0000 H       1  UNL1        0.0584
    166 H           4.5244  -10.8799    0.0000 H       1  UNL1        0.0584
    167 H           8.5991  -11.3923    0.0000 H       1  UNL1        0.2100
    168 H           7.4040  -12.0823    0.0000 H       1  UNL1        0.2100
    169 H           9.0410   10.0572    0.0000 H       1  UNL1        0.0725
    170 H           8.2439   10.0572    0.0000 H       1  UNL1        0.0725
    171 H           4.5981  -12.0823    0.0000 H       1  UNL1        0.2095
    172 H          13.5286    7.0453    0.0000 H       1  UNL1        0.0342
    173 H          14.3755    7.2722    0.0000 H       1  UNL1        0.0342
    174 H          14.1486    8.1192    0.0000 H       1  UNL1        0.0342
    175 H          13.2826   10.5453    0.0000 H       1  UNL1        0.0342
    176 H          13.5095   11.3923    0.0000 H       1  UNL1        0.0342
    177 H          12.6626   11.6192    0.0000 H       1  UNL1        0.0342
    178 H          10.1285   12.0823    0.0000 H       1  UNL1        0.0342
    179 H           9.5085   12.7023    0.0000 H       1  UNL1        0.0342
    180 H           8.8885   12.0823    0.0000 H       1  UNL1        0.0342
    181 H           5.7344    9.6192    0.0000 H       1  UNL1        0.0342
    182 H           5.5074    8.7722    0.0000 H       1  UNL1        0.0342
    183 H           6.3544    8.5453    0.0000 H       1  UNL1        0.0342
@<TRIPOS>BOND
     1     1    45    1
     2     1    59    1
     3     2    51    1
     4     2    60    1
     5     3    53    1
     6     3   136    1
     7     4    54    1
     8     4   138    1
     9     5    59    1
    10     5    65    1
    11     6    60    1
    12     6    67    1
    13     7    61    1
    14     7    69    1
    15     8    62    1
    16     8   149    1
    17     9    63    1
    18     9   151    1
    19    10    64    1
    20    10    72    1
    21    11    66    1
    22    11   152    1
    23    12    68    1
    24    12   153    1
    25    13    69    1
    26    13    75    1
    27    14    70    1
    28    14   159    1
    29    15    70    2
    30    16    72    1
    31    16    78    1
    32    17    71    1
    33    17   162    1
    34    18    73    1
    35    18   167    1
    36    19    74    1
    37    19    82    1
    38    20    76    1
    39    20   168    1
    40    21    77    1
    41    21    83    1
    42    22    79    1
    43    22    84    1
    44    23    80    1
    45    23   171    1
    46    24    81    1
    47    24    87    1
    48    25    82    2
    49    26    83    2
    50    27    84    2
    51    28    87    2
    52    29    30    1
    53    29    32    1
    54    29    34    1
    55    29    44    1
    56    30    31    1
    57    30    41    1
    58    30    90    1
    59    31    33    1
    60    31    42    1
    61    31    47    1
    62    32    35    1
    63    32    40    1
    64    32    49    1
    65    33    37    1
    66    33    38    1
    67    33    91    1
    68    34    37    1
    69    34    92    1
    70    34    93    1
    71    35    36    1
    72    35    46    2
    73    36    39    1
    74    36    50    1
    75    36    94    1
    76    37    95    1
    77    37    96    1
    78    38    45    1
    79    38    54    1
    80    38    55    1
    81    39    43    1
    82    39    51    1
    83    39    56    1
    84    40    43    1
    85    40    97    1
    86    40    98    1
    87    41    46    1
    88    41    99    1
    89    41   100    1
    90    42    48    1
    91    42   101    1
    92    42   102    1
    93    43   103    1
    94    43   104    1
    95    44   105    1
    96    44   106    1
    97    44   107    1
    98    45    48    1
    99    45   108    1
   100    46   109    1
   101    47   110    1
   102    47   111    1
   103    47   112    1
   104    48   113    1
   105    48   114    1
   106    49   115    1
   107    49   116    1
   108    49   117    1
   109    50    52    1
   110    50   118    1
   111    50   119    1
   112    51    53    1
   113    51   120    1
   114    52    53    1
   115    52    57    1
   116    52    58    1
   117    53   121    1
   118    54   122    1
   119    54   123    1
   120    55   124    1
   121    55   125    1
   122    55   126    1
   123    56   127    1
   124    56   128    1
   125    56   129    1
   126    57   130    1
   127    57   131    1
   128    57   132    1
   129    58   133    1
   130    58   134    1
   131    58   135    1
   132    59    61    1
   133    59   137    1
   134    60    62    1
   135    60   139    1
   136    61    63    1
   137    61   140    1
   138    62    64    1
   139    62   141    1
   140    63    66    1
   141    63   142    1
   142    64    68    1
   143    64   143    1
   144    65    66    1
   145    65    70    1
   146    65   144    1
   147    66   145    1
   148    67    68    1
   149    67   146    1
   150    67   147    1
   151    68   148    1
   152    69    71    1
   153    69   150    1
   154    71    73    1
   155    71   154    1
   156    72    74    1
   157    72   155    1
   158    73    76    1
   159    73   156    1
   160    74    77    1
   161    74   157    1
   162    75    76    1
   163    75    80    1
   164    75   158    1
   165    76   160    1
   166    77    79    1
   167    77   161    1
   168    78    79    1
   169    78    81    1
   170    78   163    1
   171    79   164    1
   172    80   165    1
   173    80   166    1
   174    81   169    1
   175    81   170    1
   176    82    85    1
   177    83    86    1
   178    84    88    1
   179    85   172    1
   180    85   173    1
   181    85   174    1
   182    86   175    1
   183    86   176    1
   184    86   177    1
   185    87    89    1
   186    88   178    1
   187    88   179    1
   188    88   180    1
   189    89   181    1
   190    89   182    1
   191    89   183    1
