@<TRIPOS>MOLECULE
IMPHY013266
 35 37 0 0 0
SMALL
GASTEIGER

@<TRIPOS>ATOM
      1 O           3.7244   -1.0992    0.0000 O.3     1  UNL1       -0.4570
      2 O           6.3264    1.0618    0.0000 O.3     1  UNL1       -0.4531
      3 O           4.1328   -2.8219    0.0000 O.2     1  UNL1       -0.2453
      4 O           6.6051    2.8219    0.0000 O.2     1  UNL1       -0.2453
      5 C           5.3094   -0.5041    0.0000 C.3     1  UNL1        0.0683
      6 C           4.2026   -0.2235    0.0000 C.3     1  UNL1        0.1177
      7 C           5.5174    0.4740    0.0000 C.3     1  UNL1        0.1327
      8 C           3.8936    0.7276    0.0000 C.3     1  UNL1        0.0060
      9 C           5.3127   -1.5019    0.0000 C.2     1  UNL1        0.0400
     10 C           4.7083    1.0618    0.0000 C.2     1  UNL1       -0.0333
     11 C           5.0174    2.0129    0.0000 C.2     1  UNL1        0.0364
     12 C           2.9155    0.9355    0.0000 C.2     1  UNL1       -0.0730
     13 C           4.3786   -1.8526    0.0000 C.2     1  UNL1        0.3354
     14 C           4.2742    2.6820    0.0000 C.3     1  UNL1       -0.0177
     15 C           3.2756    2.6297    0.0000 C.3     1  UNL1       -0.0303
     16 C           6.0174    2.0129    0.0000 C.2     1  UNL1        0.3355
     17 C           2.6064    1.8865    0.0000 C.2     1  UNL1       -0.0846
     18 C           6.1357   -2.0700    0.0000 C.2     1  UNL1       -0.0882
     19 C           2.2463    0.1923    0.0000 C.3     1  UNL1       -0.0437
     20 H           6.1334   -0.7130    0.0000 H       1  UNL1        0.0427
     21 H           3.3563   -0.1447    0.0000 H       1  UNL1        0.0744
     22 H           6.2302    0.0111    0.0000 H       1  UNL1        0.0787
     23 H           4.5076    0.8139    0.0000 H       1  UNL1        0.0346
     24 H           3.9152    1.3472    0.0000 H       1  UNL1        0.0346
     25 H           4.1187    0.8702    0.0000 H       1  UNL1        0.0613
     26 H           4.7942    3.0197    0.0000 H       1  UNL1        0.0318
     27 H           4.0826    3.2717    0.0000 H       1  UNL1        0.0318
     28 H           3.4045    3.2361    0.0000 H       1  UNL1        0.0311
     29 H           2.7232    2.9112    0.0000 H       1  UNL1        0.0311
     30 H           2.0000    2.0154    0.0000 H       1  UNL1        0.0572
     31 H           6.0858   -2.6880    0.0000 H       1  UNL1        0.0540
     32 H           6.6958   -1.8042    0.0000 H       1  UNL1        0.0540
     33 H           1.7856    0.6072    0.0000 H       1  UNL1        0.0274
     34 H           1.8315   -0.2684    0.0000 H       1  UNL1        0.0274
     35 H           2.7071   -0.2225    0.0000 H       1  UNL1        0.0274
@<TRIPOS>BOND
     1     1     6    1
     2     1    13    1
     3     2     7    1
     4     2    16    1
     5     3    13    2
     6     4    16    2
     7     5     6    1
     8     5     7    1
     9     5     9    1
    10     5    20    1
    11     6     8    1
    12     6    21    1
    13     7    10    1
    14     7    22    1
    15     8    12    1
    16     8    23    1
    17     8    24    1
    18     9    13    1
    19     9    18    2
    20    10    11    2
    21    10    25    1
    22    11    14    1
    23    11    16    1
    24    12    17    2
    25    12    19    1
    26    14    15    1
    27    14    26    1
    28    14    27    1
    29    15    17    1
    30    15    28    1
    31    15    29    1
    32    17    30    1
    33    18    31    1
    34    18    32    1
    35    19    33    1
    36    19    34    1
    37    19    35    1
