@<TRIPOS>MOLECULE
IMPHY013404
 54 57 0 0 0
SMALL
GASTEIGER

@<TRIPOS>ATOM
      1 O           5.1350   -0.5870    0.0000 O.3     1  UNL1       -0.3313
      2 O           6.8671   -0.5870    0.0000 O.3     1  UNL1       -0.4599
      3 O           5.1350   -3.5870    0.0000 O.3     1  UNL1       -0.3864
      4 O           3.4030   -2.5870    0.0000 O.3     1  UNL1       -0.3865
      5 O           6.8671   -2.5870    0.0000 O.3     1  UNL1       -0.3829
      6 O           2.5369   -1.0870    0.0000 O.3     1  UNL1       -0.3924
      7 O           8.6504    2.4272    0.0000 O.2     1  UNL1       -0.4542
      8 O           5.1208    2.4921    0.0000 O.3     1  UNL1       -0.4949
      9 O           8.6158   -0.5726    0.0000 O.2     1  UNL1       -0.2869
     10 O          11.2310    0.8972    0.0000 O.3     1  UNL1       -0.5061
     11 C           5.1350   -2.5870    0.0000 C.3     1  UNL1        0.1152
     12 C           4.2690   -2.0870    0.0000 C.3     1  UNL1        0.1120
     13 C           6.0010   -2.0870    0.0000 C.3     1  UNL1        0.1454
     14 C           4.2690   -1.0870    0.0000 C.3     1  UNL1        0.1140
     15 C           6.0010   -1.0870    0.0000 C.3     1  UNL1        0.2308
     16 C           3.4030   -0.5870    0.0000 C.3     1  UNL1        0.0731
     17 C           6.8671    0.4130    0.0000 C.ar    1  UNL1        0.1418
     18 C           7.7671    0.9373    0.0000 C.ar    1  UNL1        0.1058
     19 C           5.9670    0.9373    0.0000 C.ar    1  UNL1        0.0228
     20 C           7.7787    1.9372    0.0000 C.ar    1  UNL1        0.1463
     21 C           5.9790    1.9788    0.0000 C.ar    1  UNL1        0.1271
     22 C           8.6273    0.4273    0.0000 C.ar    1  UNL1        0.1966
     23 C           6.8910    2.4822    0.0000 C.ar    1  UNL1        0.0233
     24 C           9.5106    1.9172    0.0000 C.ar    1  UNL1        0.1427
     25 C           9.4991    0.9172    0.0000 C.ar    1  UNL1        0.0289
     26 C          10.3824    2.4071    0.0000 C.ar    1  UNL1        0.0588
     27 C          11.2426    1.8972    0.0000 C.ar    1  UNL1        0.1275
     28 C          10.3939    3.4071    0.0000 C.ar    1  UNL1       -0.0476
     29 C           5.1363    3.4920    0.0000 C.3     1  UNL1        0.0788
     30 C          12.1143    2.3871    0.0000 C.ar    1  UNL1       -0.0195
     31 C          11.2657    3.8970    0.0000 C.ar    1  UNL1       -0.0609
     32 C          12.1259    3.3870    0.0000 C.ar    1  UNL1       -0.0583
     33 H           4.5981   -2.8970    0.0000 H       1  UNL1        0.0648
     34 H           4.2690   -2.7070    0.0000 H       1  UNL1        0.0647
     35 H           6.0010   -2.7070    0.0000 H       1  UNL1        0.0683
     36 H           4.2690   -0.4670    0.0000 H       1  UNL1        0.0647
     37 H           6.0010   -0.4670    0.0000 H       1  UNL1        0.1084
     38 H           3.8015   -0.1121    0.0000 H       1  UNL1        0.0584
     39 H           3.0044   -0.1121    0.0000 H       1  UNL1        0.0584
     40 H           4.5981   -3.8970    0.0000 H       1  UNL1        0.2100
     41 H           3.4030   -3.2070    0.0000 H       1  UNL1        0.2100
     42 H           6.8671   -3.2070    0.0000 H       1  UNL1        0.2102
     43 H           2.0000   -0.7770    0.0000 H       1  UNL1        0.2095
     44 H           5.4277    0.6314    0.0000 H       1  UNL1        0.0691
     45 H           6.9053    3.1020    0.0000 H       1  UNL1        0.0691
     46 H          10.0324    0.6011    0.0000 H       1  UNL1        0.0693
     47 H           9.8606    3.7232    0.0000 H       1  UNL1        0.0626
     48 H           5.7562    3.4824    0.0000 H       1  UNL1        0.0660
     49 H           5.1458    4.1119    0.0000 H       1  UNL1        0.0660
     50 H           4.5163    3.5016    0.0000 H       1  UNL1        0.0660
     51 H          12.6476    2.0709    0.0000 H       1  UNL1        0.0654
     52 H          11.2729    4.5170    0.0000 H       1  UNL1        0.0618
     53 H          12.6664    3.6908    0.0000 H       1  UNL1        0.0619
     54 H          11.7643    0.5810    0.0000 H       1  UNL1        0.2922
@<TRIPOS>BOND
     1     1    14    1
     2     1    15    1
     3    15     2    1
     4     2    17    1
     5    11     3    1
     6     3    40    1
     7    12     4    1
     8     4    41    1
     9     5    13    1
    10     5    42    1
    11     6    16    1
    12     6    43    1
    13     7    20   ar
    14     7    24   ar
    15     8    21    1
    16     8    29    1
    17     9    22    2
    18    10    27    1
    19    10    54    1
    20    11    12    1
    21    11    13    1
    22    11    33    1
    23    12    14    1
    24    12    34    1
    25    13    15    1
    26    13    35    1
    27    14    16    1
    28    14    36    1
    29    15    37    1
    30    16    38    1
    31    16    39    1
    32    17    18   ar
    33    17    19   ar
    34    18    20   ar
    35    18    22   ar
    36    19    21   ar
    37    19    44    1
    38    20    23   ar
    39    21    23   ar
    40    22    25   ar
    41    23    45    1
    42    24    25   ar
    43    24    26    1
    44    25    46    1
    45    26    27   ar
    46    26    28   ar
    47    27    30   ar
    48    28    31   ar
    49    28    47    1
    50    29    48    1
    51    29    49    1
    52    29    50    1
    53    30    32   ar
    54    30    51    1
    55    31    32   ar
    56    31    52    1
    57    32    53    1
