@<TRIPOS>MOLECULE
IMPHY005140
 101 106 0 0 0
SMALL
GASTEIGER

@<TRIPOS>ATOM
      1 O           6.8671   -3.1941    0.0000 O.3     1  UNL1       -0.3449
      2 O           8.6209    6.0853    0.0000 O.3     1  UNL1       -0.4802
      3 O           9.5042    4.5954    0.0000 O.2     1  UNL1       -0.2504
      4 O           5.1350   -3.1941    0.0000 O.3     1  UNL1       -0.3315
      5 O           6.8671   -5.1941    0.0000 O.3     1  UNL1       -0.3841
      6 O           5.1350   -6.1941    0.0000 O.3     1  UNL1       -0.3864
      7 O           3.4030   -5.1941    0.0000 O.3     1  UNL1       -0.3860
      8 O           2.5369   -3.6941    0.0000 O.3     1  UNL1       -0.4788
      9 O           3.4030   -2.1941    0.0000 O.2     1  UNL1       -0.2480
     10 C           7.7681    1.5061    0.0000 C.3     1  UNL1       -0.0194
     11 C           6.9040    1.0028    0.0000 C.3     1  UNL1       -0.0257
     12 C           6.8920   -0.0388    0.0000 C.3     1  UNL1       -0.0250
     13 C           7.7643    2.5061    0.0000 C.3     1  UNL1       -0.0051
     14 C           7.7920   -0.5631    0.0000 C.3     1  UNL1       -0.0278
     15 C           8.6801    1.0028    0.0000 C.3     1  UNL1       -0.0463
     16 C           7.8046   -1.6480    0.0000 C.3     1  UNL1       -0.0052
     17 C           8.6921   -0.0388    0.0000 C.3     1  UNL1       -0.0486
     18 C           6.8963    3.0027    0.0000 C.2     1  UNL1       -0.0629
     19 C           6.0361    1.4994    0.0000 C.3     1  UNL1       -0.0306
     20 C           6.8762    4.0442    0.0000 C.3     1  UNL1       -0.0031
     21 C           5.9421   -0.5631    0.0000 C.3     1  UNL1       -0.0447
     22 C           8.6723    3.0164    0.0000 C.3     1  UNL1       -0.0424
     23 C           7.7722    4.5754    0.0000 C.3     1  UNL1        0.0741
     24 C           8.7522    1.6835    0.0000 C.3     1  UNL1       -0.0585
     25 C           6.8671   -2.1941    0.0000 C.3     1  UNL1        0.0672
     26 C           8.6763    4.0580    0.0000 C.3     1  UNL1       -0.0359
     27 C           6.0279    0.4645    0.0000 C.3     1  UNL1       -0.0590
     28 C           6.0322    2.4994    0.0000 C.2     1  UNL1       -0.0836
     29 C           5.9295   -1.6480    0.0000 C.3     1  UNL1       -0.0255
     30 C           8.7497    2.3362    0.0000 C.3     1  UNL1       -0.0553
     31 C           5.9223    4.5611    0.0000 C.3     1  UNL1       -0.0403
     32 C           7.7764    5.6604    0.0000 C.3     1  UNL1       -0.0362
     33 C           5.9014    5.6459    0.0000 C.3     1  UNL1       -0.0343
     34 C           8.8046   -1.6403    0.0000 C.3     1  UNL1       -0.0572
     35 C           8.3113   -2.5102    0.0000 C.3     1  UNL1       -0.0572
     36 C           6.8347    6.1992    0.0000 C.3     1  UNL1       -0.0468
     37 C           8.6324    5.0854    0.0000 C.2     1  UNL1        0.3115
     38 C           5.3881    6.5041    0.0000 C.3     1  UNL1       -0.0598
     39 C           4.9015    5.6305    0.0000 C.3     1  UNL1       -0.0598
     40 C           6.0010   -3.6941    0.0000 C.3     1  UNL1        0.1888
     41 C           6.0010   -4.6941    0.0000 C.3     1  UNL1        0.1341
     42 C           5.1350   -5.1941    0.0000 C.3     1  UNL1        0.1145
     43 C           4.2690   -3.6941    0.0000 C.3     1  UNL1        0.1859
     44 C           4.2690   -4.6941    0.0000 C.3     1  UNL1        0.1201
     45 C           3.4030   -3.1941    0.0000 C.2     1  UNL1        0.3367
     46 H           7.6385    0.5749    0.0000 H       1  UNL1        0.0315
     47 H           8.5314   -0.9824    0.0000 H       1  UNL1        0.0312
     48 H           9.2921    0.9037    0.0000 H       1  UNL1        0.0271
     49 H           8.8824    1.5888    0.0000 H       1  UNL1        0.0271
     50 H           8.9079   -0.6200    0.0000 H       1  UNL1        0.0268
     51 H           9.3017    0.0743    0.0000 H       1  UNL1        0.0268
     52 H           5.4251    1.6047    0.0000 H       1  UNL1        0.0310
     53 H           5.8263    0.9160    0.0000 H       1  UNL1        0.0310
     54 H           6.1502    3.6023    0.0000 H       1  UNL1        0.0357
     55 H           5.7398    0.0230    0.0000 H       1  UNL1        0.0271
     56 H           5.3300   -0.6621    0.0000 H       1  UNL1        0.0271
     57 H           8.8791    2.4319    0.0000 H       1  UNL1        0.0274
     58 H           9.2836    3.1202    0.0000 H       1  UNL1        0.0274
     59 H           8.8623    1.0734    0.0000 H       1  UNL1        0.0235
     60 H           9.3624    1.7936    0.0000 H       1  UNL1        0.0235
     61 H           8.6422    2.2937    0.0000 H       1  UNL1        0.0235
     62 H           7.4046   -2.5031    0.0000 H       1  UNL1        0.0602
     63 H           9.2868    3.9496    0.0000 H       1  UNL1        0.0276
     64 H           8.8876    4.6409    0.0000 H       1  UNL1        0.0276
     65 H           6.3400    1.0003    0.0000 H       1  UNL1        0.0235
     66 H           5.4922    0.7766    0.0000 H       1  UNL1        0.0235
     67 H           5.7158   -0.0712    0.0000 H       1  UNL1        0.0235
     68 H           5.4941    2.8073    0.0000 H       1  UNL1        0.0572
     69 H           5.3199   -1.5349    0.0000 H       1  UNL1        0.0290
     70 H           5.7137   -2.2292    0.0000 H       1  UNL1        0.0290
     71 H           8.6444    1.7252    0.0000 H       1  UNL1        0.0238
     72 H           9.3607    2.2309    0.0000 H       1  UNL1        0.0238
     73 H           8.8550    2.9472    0.0000 H       1  UNL1        0.0238
     74 H           5.3095    4.6554    0.0000 H       1  UNL1        0.0276
     75 H           5.7246    3.9735    0.0000 H       1  UNL1        0.0276
     76 H           8.3869    5.5519    0.0000 H       1  UNL1        0.0276
     77 H           7.9877    6.2433    0.0000 H       1  UNL1        0.0276
     78 H           8.8094   -2.2603    0.0000 H       1  UNL1        0.0236
     79 H           9.4246   -1.6355    0.0000 H       1  UNL1        0.0236
     80 H           8.7998   -1.0203    0.0000 H       1  UNL1        0.0236
     81 H           7.7767   -2.8243    0.0000 H       1  UNL1        0.0236
     82 H           8.6254   -3.0447    0.0000 H       1  UNL1        0.0236
     83 H           8.8458   -2.1960    0.0000 H       1  UNL1        0.0236
     84 H           7.2302    6.6767    0.0000 H       1  UNL1        0.0271
     85 H           6.4319    6.6706    0.0000 H       1  UNL1        0.0271
     86 H           5.9202    6.8224    0.0000 H       1  UNL1        0.0235
     87 H           5.0699    7.0362    0.0000 H       1  UNL1        0.0235
     88 H           4.8560    6.1859    0.0000 H       1  UNL1        0.0235
     89 H           4.8920    6.2504    0.0000 H       1  UNL1        0.0235
     90 H           4.2816    5.6209    0.0000 H       1  UNL1        0.0235
     91 H           4.9111    5.0106    0.0000 H       1  UNL1        0.0235
     92 H           6.0010   -3.0741    0.0000 H       1  UNL1        0.0938
     93 H           9.1542    6.4015    0.0000 H       1  UNL1        0.2951
     94 H           6.0010   -5.3141    0.0000 H       1  UNL1        0.0671
     95 H           4.5981   -5.5041    0.0000 H       1  UNL1        0.0648
     96 H           4.2690   -3.0741    0.0000 H       1  UNL1        0.0741
     97 H           3.7320   -4.3841    0.0000 H       1  UNL1        0.0652
     98 H           7.4040   -4.8841    0.0000 H       1  UNL1        0.2101
     99 H           5.6720   -6.5041    0.0000 H       1  UNL1        0.2100
    100 H           3.4030   -5.8141    0.0000 H       1  UNL1        0.2100
    101 H           2.0000   -3.3841    0.0000 H       1  UNL1        0.2951
@<TRIPOS>BOND
     1    25     1    1
     2    40     1    1
     3     2    37    1
     4     2    93    1
     5     3    37    2
     6     4    40    1
     7     4    43    1
     8    41     5    1
     9     5    98    1
    10    42     6    1
    11     6    99    1
    12    44     7    1
    13     7   100    1
    14     8    45    1
    15     8   101    1
    16     9    45    2
    17    10    11    1
    18    10    13    1
    19    10    15    1
    20    10    24    1
    21    11    12    1
    22    11    19    1
    23    11    46    1
    24    12    14    1
    25    12    21    1
    26    12    27    1
    27    13    18    1
    28    13    22    1
    29    13    30    1
    30    14    16    1
    31    14    17    1
    32    14    47    1
    33    15    17    1
    34    15    48    1
    35    15    49    1
    36    16    25    1
    37    16    34    1
    38    16    35    1
    39    17    50    1
    40    17    51    1
    41    18    20    1
    42    18    28    2
    43    19    28    1
    44    19    52    1
    45    19    53    1
    46    20    23    1
    47    20    31    1
    48    20    54    1
    49    21    29    1
    50    21    55    1
    51    21    56    1
    52    22    26    1
    53    22    57    1
    54    22    58    1
    55    23    26    1
    56    23    32    1
    57    23    37    1
    58    24    59    1
    59    24    60    1
    60    24    61    1
    61    25    29    1
    62    25    62    1
    63    26    63    1
    64    26    64    1
    65    27    65    1
    66    27    66    1
    67    27    67    1
    68    28    68    1
    69    29    69    1
    70    29    70    1
    71    30    71    1
    72    30    72    1
    73    30    73    1
    74    31    33    1
    75    31    74    1
    76    31    75    1
    77    32    36    1
    78    32    76    1
    79    32    77    1
    80    33    36    1
    81    33    38    1
    82    33    39    1
    83    34    78    1
    84    34    79    1
    85    34    80    1
    86    35    81    1
    87    35    82    1
    88    35    83    1
    89    36    84    1
    90    36    85    1
    91    38    86    1
    92    38    87    1
    93    38    88    1
    94    39    89    1
    95    39    90    1
    96    39    91    1
    97    40    41    1
    98    40    92    1
    99    41    42    1
   100    41    94    1
   101    42    44    1
   102    42    95    1
   103    43    44    1
   104    43    45    1
   105    43    96    1
   106    44    97    1
