@<TRIPOS>MOLECULE
IMPHY017386
 44 43 0 0 0
SMALL
GASTEIGER

@<TRIPOS>ATOM
      1 O           3.7320   -0.8660    0.0000 O.3     1  UNL1       -0.4564
      2 O           2.0000   -0.8660    0.0000 O.2     1  UNL1       -0.2546
      3 C           4.5981   -0.3660    0.0000 C.3     1  UNL1        0.1286
      4 C           5.4641    0.1340    0.0000 C.3     1  UNL1       -0.0060
      5 C           6.3301   -0.3660    0.0000 C.3     1  UNL1       -0.0306
      6 C           7.1962    0.1340    0.0000 C.2     1  UNL1       -0.0849
      7 C           5.0981   -1.2320    0.0000 C.3     1  UNL1       -0.0211
      8 C           8.0622   -0.3660    0.0000 C.2     1  UNL1       -0.0762
      9 C           8.9282    0.1340    0.0000 C.3     1  UNL1       -0.0286
     10 C           4.0981    0.5000    0.0000 C.2     1  UNL1       -0.0483
     11 C           9.7942   -0.3660    0.0000 C.3     1  UNL1       -0.0308
     12 C           8.0622   -1.3660    0.0000 C.3     1  UNL1       -0.0438
     13 C          10.6603    0.1340    0.0000 C.2     1  UNL1       -0.0850
     14 C           4.5981    1.3660    0.0000 C.2     1  UNL1       -0.0989
     15 C          11.5263   -0.3660    0.0000 C.2     1  UNL1       -0.0796
     16 C           2.8660   -0.3660    0.0000 C.2     1  UNL1        0.2951
     17 C          12.3923    0.1340    0.0000 C.3     1  UNL1       -0.0440
     18 C          11.5263   -1.3660    0.0000 C.3     1  UNL1       -0.0440
     19 H           5.8626    0.6089    0.0000 H       1  UNL1        0.0310
     20 H           5.0656    0.6089    0.0000 H       1  UNL1        0.0310
     21 H           5.9316   -0.8410    0.0000 H       1  UNL1        0.0309
     22 H           6.7287   -0.8410    0.0000 H       1  UNL1        0.0309
     23 H           7.1962    0.7540    0.0000 H       1  UNL1        0.0572
     24 H           4.5611   -1.5420    0.0000 H       1  UNL1        0.0271
     25 H           5.4081   -1.7690    0.0000 H       1  UNL1        0.0271
     26 H           5.6350   -0.9221    0.0000 H       1  UNL1        0.0271
     27 H           9.3267    0.6089    0.0000 H       1  UNL1        0.0313
     28 H           8.5297    0.6089    0.0000 H       1  UNL1        0.0313
     29 H           3.4781    0.5000    0.0000 H       1  UNL1        0.0605
     30 H           9.3957   -0.8410    0.0000 H       1  UNL1        0.0310
     31 H          10.1928   -0.8410    0.0000 H       1  UNL1        0.0310
     32 H           7.4422   -1.3660    0.0000 H       1  UNL1        0.0274
     33 H           8.0622   -1.9860    0.0000 H       1  UNL1        0.0274
     34 H           8.6822   -1.3660    0.0000 H       1  UNL1        0.0274
     35 H          10.6603    0.7540    0.0000 H       1  UNL1        0.0572
     36 H           5.2181    1.3660    0.0000 H       1  UNL1        0.0533
     37 H           4.2881    1.9030    0.0000 H       1  UNL1        0.0533
     38 H           2.8660    0.2540    0.0000 H       1  UNL1        0.1512
     39 H          12.7023   -0.4030    0.0000 H       1  UNL1        0.0274
     40 H          12.9292    0.4440    0.0000 H       1  UNL1        0.0274
     41 H          12.0823    0.6709    0.0000 H       1  UNL1        0.0274
     42 H          10.9063   -1.3660    0.0000 H       1  UNL1        0.0274
     43 H          11.5263   -1.9860    0.0000 H       1  UNL1        0.0274
     44 H          12.1463   -1.3660    0.0000 H       1  UNL1        0.0274
@<TRIPOS>BOND
     1     1     3    1
     2     1    16    1
     3     2    16    2
     4     3     4    1
     5     3     7    1
     6     3    10    1
     7     4     5    1
     8     4    19    1
     9     4    20    1
    10     5     6    1
    11     5    21    1
    12     5    22    1
    13     6     8    2
    14     6    23    1
    15     7    24    1
    16     7    25    1
    17     7    26    1
    18     8     9    1
    19     8    12    1
    20     9    11    1
    21     9    27    1
    22     9    28    1
    23    10    14    2
    24    10    29    1
    25    11    13    1
    26    11    30    1
    27    11    31    1
    28    12    32    1
    29    12    33    1
    30    12    34    1
    31    13    15    2
    32    13    35    1
    33    14    36    1
    34    14    37    1
    35    15    17    1
    36    15    18    1
    37    16    38    1
    38    17    39    1
    39    17    40    1
    40    17    41    1
    41    18    42    1
    42    18    43    1
    43    18    44    1
