@<TRIPOS>MOLECULE
IMPHY015621
 13 12 0 0 0
SMALL
GASTEIGER

@<TRIPOS>ATOM
      1 S           6.3301   -0.2500    0.0000 S.3     1  UNL1       -0.0844
      2 S           2.8660   -0.2500    0.0000 S.3     1  UNL1       -0.0844
      3 S           5.4641    0.2500    0.0000 S.3     1  UNL1       -0.0124
      4 S           3.7320    0.2500    0.0000 S.3     1  UNL1       -0.0124
      5 S           4.5981   -0.2500    0.0000 S.3     1  UNL1       -0.0016
      6 C           7.1962    0.2500    0.0000 C.3     1  UNL1       -0.0070
      7 C           2.0000    0.2500    0.0000 C.3     1  UNL1       -0.0070
      8 H           7.5062   -0.2869    0.0000 H       1  UNL1        0.0349
      9 H           7.7331    0.5600    0.0000 H       1  UNL1        0.0349
     10 H           6.8862    0.7869    0.0000 H       1  UNL1        0.0349
     11 H           2.3100    0.7869    0.0000 H       1  UNL1        0.0349
     12 H           1.4631    0.5600    0.0000 H       1  UNL1        0.0349
     13 H           1.6900   -0.2869    0.0000 H       1  UNL1        0.0349
@<TRIPOS>BOND
     1     1     3    1
     2     1     6    1
     3     2     4    1
     4     2     7    1
     5     3     5    1
     6     4     5    1
     7     6     8    1
     8     6     9    1
     9     6    10    1
    10     7    11    1
    11     7    12    1
    12     7    13    1
