@<TRIPOS>MOLECULE
IMPHY013014
 68 69 0 0 0
SMALL
GASTEIGER

@<TRIPOS>ATOM
      1 O          11.5263    7.7500    0.0000 O.3     1  UNL1       -0.5066
      2 O           2.0000   -7.7500    0.0000 O.3     1  UNL1       -0.5066
      3 O           8.0622    7.7500    0.0000 O.3     1  UNL1       -0.5066
      4 O           5.4641   -7.7500    0.0000 O.3     1  UNL1       -0.5066
      5 C           7.1962    0.2500    0.0000 C.3     1  UNL1       -0.0531
      6 C           6.3301   -0.2500    0.0000 C.3     1  UNL1       -0.0531
      7 C           7.1962    1.2500    0.0000 C.3     1  UNL1       -0.0531
      8 C           6.3301   -1.2500    0.0000 C.3     1  UNL1       -0.0531
      9 C           8.0622    1.7500    0.0000 C.3     1  UNL1       -0.0531
     10 C           5.4641   -1.7500    0.0000 C.3     1  UNL1       -0.0531
     11 C           8.0622    2.7500    0.0000 C.3     1  UNL1       -0.0530
     12 C           5.4641   -2.7500    0.0000 C.3     1  UNL1       -0.0530
     13 C           8.9282    3.2500    0.0000 C.3     1  UNL1       -0.0528
     14 C           4.5981   -3.2500    0.0000 C.3     1  UNL1       -0.0528
     15 C           8.9282    4.2500    0.0000 C.3     1  UNL1       -0.0491
     16 C           4.5981   -4.2500    0.0000 C.3     1  UNL1       -0.0491
     17 C           9.7942    4.7500    0.0000 C.3     1  UNL1       -0.0275
     18 C           3.7320   -4.7500    0.0000 C.3     1  UNL1       -0.0275
     19 C           9.7942    5.7500    0.0000 C.ar    1  UNL1       -0.0405
     20 C           3.7320   -5.7500    0.0000 C.ar    1  UNL1       -0.0405
     21 C           8.9282    6.2500    0.0000 C.ar    1  UNL1       -0.0168
     22 C           4.5981   -6.2500    0.0000 C.ar    1  UNL1       -0.0168
     23 C          10.6603    6.2500    0.0000 C.ar    1  UNL1       -0.0168
     24 C           2.8660   -6.2500    0.0000 C.ar    1  UNL1       -0.0168
     25 C          10.6603    7.2500    0.0000 C.ar    1  UNL1        0.1206
     26 C           2.8660   -7.2500    0.0000 C.ar    1  UNL1        0.1206
     27 C           8.9282    7.2500    0.0000 C.ar    1  UNL1        0.1206
     28 C           4.5981   -7.2500    0.0000 C.ar    1  UNL1        0.1206
     29 C           9.7942    7.7500    0.0000 C.ar    1  UNL1        0.0213
     30 C           3.7320   -7.7500    0.0000 C.ar    1  UNL1        0.0213
     31 H           7.4082   -0.3326    0.0000 H       1  UNL1        0.0265
     32 H           7.8067    0.3577    0.0000 H       1  UNL1        0.0265
     33 H           6.1181    0.3326    0.0000 H       1  UNL1        0.0265
     34 H           5.7196   -0.3577    0.0000 H       1  UNL1        0.0265
     35 H           6.9841    1.8326    0.0000 H       1  UNL1        0.0265
     36 H           6.5856    1.1423    0.0000 H       1  UNL1        0.0265
     37 H           6.5422   -1.8326    0.0000 H       1  UNL1        0.0265
     38 H           6.9407   -1.1423    0.0000 H       1  UNL1        0.0265
     39 H           8.2742    1.1674    0.0000 H       1  UNL1        0.0265
     40 H           8.6728    1.8577    0.0000 H       1  UNL1        0.0265
     41 H           5.2520   -1.1674    0.0000 H       1  UNL1        0.0265
     42 H           4.8535   -1.8577    0.0000 H       1  UNL1        0.0265
     43 H           7.8501    3.3326    0.0000 H       1  UNL1        0.0265
     44 H           7.4516    2.6423    0.0000 H       1  UNL1        0.0265
     45 H           5.6762   -3.3326    0.0000 H       1  UNL1        0.0265
     46 H           6.0747   -2.6423    0.0000 H       1  UNL1        0.0265
     47 H           9.1403    2.6674    0.0000 H       1  UNL1        0.0265
     48 H           9.5388    3.3577    0.0000 H       1  UNL1        0.0265
     49 H           4.3860   -2.6674    0.0000 H       1  UNL1        0.0265
     50 H           3.9875   -3.3577    0.0000 H       1  UNL1        0.0265
     51 H           8.7162    4.8326    0.0000 H       1  UNL1        0.0268
     52 H           8.3176    4.1423    0.0000 H       1  UNL1        0.0268
     53 H           4.8101   -4.8326    0.0000 H       1  UNL1        0.0268
     54 H           5.2087   -4.1423    0.0000 H       1  UNL1        0.0268
     55 H          10.0063    4.1674    0.0000 H       1  UNL1        0.0313
     56 H          10.4048    4.8577    0.0000 H       1  UNL1        0.0313
     57 H           3.5200   -4.1674    0.0000 H       1  UNL1        0.0313
     58 H           3.1215   -4.8577    0.0000 H       1  UNL1        0.0313
     59 H           8.3913    5.9400    0.0000 H       1  UNL1        0.0657
     60 H           5.1350   -5.9400    0.0000 H       1  UNL1        0.0657
     61 H          11.1972    5.9400    0.0000 H       1  UNL1        0.0657
     62 H           2.3291   -5.9400    0.0000 H       1  UNL1        0.0657
     63 H           9.7942    8.3700    0.0000 H       1  UNL1        0.0691
     64 H           3.7320   -8.3700    0.0000 H       1  UNL1        0.0691
     65 H          11.5263    8.3700    0.0000 H       1  UNL1        0.2921
     66 H           2.0000   -8.3700    0.0000 H       1  UNL1        0.2921
     67 H           8.0622    8.3700    0.0000 H       1  UNL1        0.2921
     68 H           5.4641   -8.3700    0.0000 H       1  UNL1        0.2921
@<TRIPOS>BOND
     1     1    25    1
     2     1    65    1
     3     2    26    1
     4     2    66    1
     5     3    27    1
     6     3    67    1
     7     4    28    1
     8     4    68    1
     9     5     6    1
    10     5     7    1
    11     5    31    1
    12     5    32    1
    13     6     8    1
    14     6    33    1
    15     6    34    1
    16     7     9    1
    17     7    35    1
    18     7    36    1
    19     8    10    1
    20     8    37    1
    21     8    38    1
    22     9    11    1
    23     9    39    1
    24     9    40    1
    25    10    12    1
    26    10    41    1
    27    10    42    1
    28    11    13    1
    29    11    43    1
    30    11    44    1
    31    12    14    1
    32    12    45    1
    33    12    46    1
    34    13    15    1
    35    13    47    1
    36    13    48    1
    37    14    16    1
    38    14    49    1
    39    14    50    1
    40    15    17    1
    41    15    51    1
    42    15    52    1
    43    16    18    1
    44    16    53    1
    45    16    54    1
    46    17    19    1
    47    17    55    1
    48    17    56    1
    49    18    20    1
    50    18    57    1
    51    18    58    1
    52    19    21   ar
    53    19    23   ar
    54    20    22   ar
    55    20    24   ar
    56    21    27   ar
    57    21    59    1
    58    22    28   ar
    59    22    60    1
    60    23    25   ar
    61    23    61    1
    62    24    26   ar
    63    24    62    1
    64    25    29   ar
    65    26    30   ar
    66    27    29   ar
    67    28    30   ar
    68    29    63    1
    69    30    64    1
