@<TRIPOS>MOLECULE
IMPHY004052
 21 20 0 0 0
SMALL
GASTEIGER

@<TRIPOS>ATOM
      1 C          11.5263    0.4400    0.0000 C.3     1  UNL1       -0.0459
      2 C          11.5263    1.4400    0.0000 C.2     1  UNL1       -0.0789
      3 C          10.6603    1.9400    0.0000 C.2     1  UNL1       -0.0148
      4 C           9.7942    1.4400    0.0000 C.1     1  UNL1       -0.0606
      5 C           8.9282    0.9400    0.0000 C.1     1  UNL1       -0.0092
      6 C           2.8660   -2.5600    0.0000 C.2     1  UNL1       -0.0177
      7 C           2.0000   -2.0600    0.0000 C.2     1  UNL1       -0.0905
      8 C           8.0622    0.4400    0.0000 C.1     1  UNL1       -0.0006
      9 C           3.7320   -2.0600    0.0000 C.1     1  UNL1       -0.0608
     10 C           4.5981   -1.5600    0.0000 C.1     1  UNL1       -0.0092
     11 C           7.1962   -0.0600    0.0000 C.1     1  UNL1       -0.0000
     12 C           5.4641   -1.0600    0.0000 C.1     1  UNL1       -0.0006
     13 C           6.3301   -0.5600    0.0000 C.1     1  UNL1       -0.0000
     14 H          10.9063    0.4400    0.0000 H       1  UNL1        0.0272
     15 H          11.5263   -0.1800    0.0000 H       1  UNL1        0.0272
     16 H          12.1463    0.4400    0.0000 H       1  UNL1        0.0272
     17 H          12.0632    1.7500    0.0000 H       1  UNL1        0.0575
     18 H          10.6603    2.5600    0.0000 H       1  UNL1        0.0709
     19 H           2.8660   -3.1800    0.0000 H       1  UNL1        0.0706
     20 H           2.0000   -1.4400    0.0000 H       1  UNL1        0.0541
     21 H           1.4631   -2.3700    0.0000 H       1  UNL1        0.0541
@<TRIPOS>BOND
     1     1     2    1
     2     1    14    1
     3     1    15    1
     4     1    16    1
     5     2     3    2
     6     2    17    1
     7     3     4    1
     8     3    18    1
     9     4     5    3
    10     5     8    1
    11     6     7    2
    12     6     9    1
    13     6    19    1
    14     7    20    1
    15     7    21    1
    16     8    11    3
    17     9    10    3
    18    10    12    1
    19    11    13    1
    20    12    13    3
