@<TRIPOS>MOLECULE
IMPHY007810
 49 53 0 0 0
SMALL
GASTEIGER

@<TRIPOS>ATOM
      1 O           4.6744    3.9719    0.0000 O.3     1  UNL1       -0.4815
      2 O           2.9180    0.8177    0.0000 O.2     1  UNL1       -0.4547
      3 O           2.0000   -1.7308    0.0000 O.3     1  UNL1       -0.4836
      4 O           5.5161   -0.6823    0.0000 O.2     1  UNL1       -0.2864
      5 O           5.6405   -3.8193    0.0000 O.3     1  UNL1       -0.4914
      6 O           3.8372   -4.8790    0.0000 O.3     1  UNL1       -0.4913
      7 C           3.7348    4.5144    0.0000 C.3     1  UNL1        0.1235
      8 C           3.7680    2.3592    0.0000 C.ar    1  UNL1        0.0594
      9 C           3.7841    1.3177    0.0000 C.ar    1  UNL1        0.1496
     10 C           3.7841   -0.6823    0.0000 C.ar    1  UNL1        0.0745
     11 C           4.6501    0.8177    0.0000 C.ar    1  UNL1        0.0654
     12 C           4.6660    2.8870    0.0000 C.ar    1  UNL1        0.1324
     13 C           2.9180   -0.1823    0.0000 C.ar    1  UNL1        0.1543
     14 C           2.7993    3.9647    0.0000 C.2     1  UNL1       -0.0408
     15 C           3.8001   -1.7238    0.0000 C.ar    1  UNL1        0.0345
     16 C           4.6501   -0.1823    0.0000 C.ar    1  UNL1        0.2007
     17 C           2.8161    2.8798    0.0000 C.2     1  UNL1       -0.0478
     18 C           2.0080   -0.6892    0.0000 C.3     1  UNL1        0.1477
     19 C           3.2314    5.3785    0.0000 C.3     1  UNL1       -0.0215
     20 C           4.2314    5.3824    0.0000 C.3     1  UNL1       -0.0215
     21 C           5.5601    1.3245    0.0000 C.ar    1  UNL1       -0.0439
     22 C           5.5681    2.3661    0.0000 C.ar    1  UNL1       -0.0184
     23 C           2.9021   -2.2516    0.0000 C.ar    1  UNL1        0.1327
     24 C           4.7520   -2.2444    0.0000 C.ar    1  UNL1       -0.0049
     25 C           2.8937   -3.3365    0.0000 C.ar    1  UNL1        0.0260
     26 C           4.7688   -3.3293    0.0000 C.ar    1  UNL1        0.1623
     27 C           3.8334   -3.8790    0.0000 C.ar    1  UNL1        0.1650
     28 C           5.6521   -4.8192    0.0000 C.3     1  UNL1        0.0790
     29 C           2.9731   -5.3824    0.0000 C.3     1  UNL1        0.0790
     30 H           2.2589    4.2685    0.0000 H       1  UNL1        0.0611
     31 H           2.2852    2.5595    0.0000 H       1  UNL1        0.0624
     32 H           1.8035   -0.1039    0.0000 H       1  UNL1        0.0779
     33 H           1.3964   -0.7905    0.0000 H       1  UNL1        0.0779
     34 H           4.7696    5.0744    0.0000 H       1  UNL1        0.0271
     35 H           4.5394    5.9205    0.0000 H       1  UNL1        0.0271
     36 H           3.6933    5.6903    0.0000 H       1  UNL1        0.0271
     37 H           3.7672    5.6906    0.0000 H       1  UNL1        0.0271
     38 H           2.9194    5.9142    0.0000 H       1  UNL1        0.0271
     39 H           2.6957    5.0664    0.0000 H       1  UNL1        0.0271
     40 H           6.0934    1.0084    0.0000 H       1  UNL1        0.0627
     41 H           6.1062    2.6741    0.0000 H       1  UNL1        0.0654
     42 H           5.2829   -1.9242    0.0000 H       1  UNL1        0.0663
     43 H           2.3556   -3.6445    0.0000 H       1  UNL1        0.0692
     44 H           5.0321   -4.8264    0.0000 H       1  UNL1        0.0660
     45 H           5.6592   -5.4392    0.0000 H       1  UNL1        0.0660
     46 H           6.2720   -4.8120    0.0000 H       1  UNL1        0.0660
     47 H           2.6610   -4.8466    0.0000 H       1  UNL1        0.0660
     48 H           2.4374   -5.6944    0.0000 H       1  UNL1        0.0660
     49 H           3.2852   -5.9181    0.0000 H       1  UNL1        0.0660
@<TRIPOS>BOND
     1     1     7    1
     2     1    12    1
     3     2     9   ar
     4     2    13   ar
     5     3    18    1
     6     3    23    1
     7     4    16    2
     8     5    26    1
     9     5    28    1
    10     6    27    1
    11     6    29    1
    12     7    14    1
    13     7    19    1
    14     7    20    1
    15     8     9   ar
    16     8    12   ar
    17     8    17    1
    18     9    11   ar
    19    10    13   ar
    20    10    15    1
    21    10    16   ar
    22    11    16   ar
    23    11    21   ar
    24    12    22   ar
    25    13    18    1
    26    14    17    2
    27    14    30    1
    28    15    23   ar
    29    15    24   ar
    30    17    31    1
    31    18    32    1
    32    18    33    1
    33    19    37    1
    34    19    38    1
    35    19    39    1
    36    20    34    1
    37    20    35    1
    38    20    36    1
    39    21    22   ar
    40    21    40    1
    41    22    41    1
    42    23    25   ar
    43    24    26   ar
    44    24    42    1
    45    25    27   ar
    46    25    43    1
    47    26    27   ar
    48    28    44    1
    49    28    45    1
    50    28    46    1
    51    29    47    1
    52    29    48    1
    53    29    49    1
