@<TRIPOS>MOLECULE
IMPHY016090
 38 37 0 0 0
SMALL
GASTEIGER

@<TRIPOS>ATOM
      1 C           4.5981   -0.2500    0.0000 C.3     1  UNL1       -0.0385
      2 C           5.4641    0.2500    0.0000 C.3     1  UNL1       -0.0385
      3 C           3.7320    0.2500    0.0000 C.3     1  UNL1       -0.0502
      4 C           6.3301   -0.2500    0.0000 C.3     1  UNL1       -0.0502
      5 C           4.5981   -1.2500    0.0000 C.3     1  UNL1       -0.0528
      6 C           5.4641    1.2500    0.0000 C.3     1  UNL1       -0.0528
      7 C           2.8660   -0.2500    0.0000 C.3     1  UNL1       -0.0557
      8 C           7.1962    0.2500    0.0000 C.3     1  UNL1       -0.0557
      9 C           3.7320   -1.7500    0.0000 C.3     1  UNL1       -0.0650
     10 C           6.3301    1.7500    0.0000 C.3     1  UNL1       -0.0650
     11 C           2.0000    0.2500    0.0000 C.3     1  UNL1       -0.0653
     12 C           8.0622   -0.2500    0.0000 C.3     1  UNL1       -0.0653
     13 H           4.5981    0.3700    0.0000 H       1  UNL1        0.0303
     14 H           5.4641   -0.3700    0.0000 H       1  UNL1        0.0303
     15 H           4.1306    0.7249    0.0000 H       1  UNL1        0.0268
     16 H           3.3335    0.7249    0.0000 H       1  UNL1        0.0268
     17 H           5.9316   -0.7249    0.0000 H       1  UNL1        0.0268
     18 H           6.7287   -0.7249    0.0000 H       1  UNL1        0.0268
     19 H           4.8101   -1.8326    0.0000 H       1  UNL1        0.0265
     20 H           5.2087   -1.1423    0.0000 H       1  UNL1        0.0265
     21 H           5.2520    1.8326    0.0000 H       1  UNL1        0.0265
     22 H           4.8535    1.1423    0.0000 H       1  UNL1        0.0265
     23 H           2.4675   -0.7249    0.0000 H       1  UNL1        0.0263
     24 H           3.2646   -0.7249    0.0000 H       1  UNL1        0.0263
     25 H           7.5947    0.7249    0.0000 H       1  UNL1        0.0263
     26 H           6.7976    0.7249    0.0000 H       1  UNL1        0.0263
     27 H           3.4220   -1.2131    0.0000 H       1  UNL1        0.0230
     28 H           3.1951   -2.0600    0.0000 H       1  UNL1        0.0230
     29 H           4.0420   -2.2869    0.0000 H       1  UNL1        0.0230
     30 H           6.6401    1.2131    0.0000 H       1  UNL1        0.0230
     31 H           6.8671    2.0600    0.0000 H       1  UNL1        0.0230
     32 H           6.0201    2.2869    0.0000 H       1  UNL1        0.0230
     33 H           2.3100    0.7869    0.0000 H       1  UNL1        0.0230
     34 H           1.4631    0.5600    0.0000 H       1  UNL1        0.0230
     35 H           1.6900   -0.2869    0.0000 H       1  UNL1        0.0230
     36 H           7.7522   -0.7869    0.0000 H       1  UNL1        0.0230
     37 H           8.5991   -0.5600    0.0000 H       1  UNL1        0.0230
     38 H           8.3722    0.2869    0.0000 H       1  UNL1        0.0230
@<TRIPOS>BOND
     1     1     2    1
     2     1     3    1
     3     1     5    1
     4     1    13    1
     5     2     4    1
     6     2     6    1
     7     2    14    1
     8     3     7    1
     9     3    15    1
    10     3    16    1
    11     4     8    1
    12     4    17    1
    13     4    18    1
    14     5     9    1
    15     5    19    1
    16     5    20    1
    17     6    10    1
    18     6    21    1
    19     6    22    1
    20     7    11    1
    21     7    23    1
    22     7    24    1
    23     8    12    1
    24     8    25    1
    25     8    26    1
    26     9    27    1
    27     9    28    1
    28     9    29    1
    29    10    30    1
    30    10    31    1
    31    10    32    1
    32    11    33    1
    33    11    34    1
    34    11    35    1
    35    12    36    1
    36    12    37    1
    37    12    38    1
