@<TRIPOS>MOLECULE
IMPHY014661
 62 65 0 0 0
SMALL
GASTEIGER

@<TRIPOS>ATOM
      1 O           8.4883    0.5714    0.0000 O.3     1  UNL1       -0.4645
      2 O           2.5971    2.1686    0.0000 O.2     1  UNL1       -0.3010
      3 O           9.8371    1.6581    0.0000 O.2     1  UNL1       -0.2512
      4 C           5.6538   -0.1308    0.0000 C.3     1  UNL1       -0.0252
      5 C           4.7853    0.3648    0.0000 C.3     1  UNL1       -0.0290
      6 C           3.8778   -0.1465    0.0000 C.3     1  UNL1       -0.0162
      7 C           3.8750   -1.1882    0.0000 C.3     1  UNL1       -0.0296
      8 C           5.6293    1.0505    0.0000 C.3     1  UNL1       -0.0439
      9 C           6.3054    2.0196    0.0000 C.3     1  UNL1       -0.0346
     10 C           6.5828    0.2391    0.0000 C.3     1  UNL1       -0.0409
     11 C           5.6751   -1.1722    0.0000 C.3     1  UNL1       -0.0468
     12 C           6.8728    1.1962    0.0000 C.3     1  UNL1       -0.0033
     13 C           4.6313    1.3529    0.0000 C.3     1  UNL1       -0.0489
     14 C           4.7797   -1.7045    0.0000 C.3     1  UNL1       -0.0487
     15 C           2.9423   -1.7425    0.0000 C.3     1  UNL1       -0.0315
     16 C           5.3078    2.0894    0.0000 C.3     1  UNL1       -0.0495
     17 C           2.9482    0.4129    0.0000 C.3     1  UNL1       -0.0464
     18 C           3.7069    0.8387    0.0000 C.3     1  UNL1        0.0090
     19 C           2.0000   -1.2047    0.0000 C.3     1  UNL1       -0.0476
     20 C           2.0029   -0.1197    0.0000 C.3     1  UNL1       -0.0520
     21 C           7.8609    1.3502    0.0000 C.3     1  UNL1        0.0955
     22 C           2.4500   -2.6130    0.0000 C.3     1  UNL1       -0.0595
     23 C           3.4500   -2.6041    0.0000 C.3     1  UNL1       -0.0595
     24 C           2.7681    1.1833    0.0000 C.2     1  UNL1        0.1209
     25 C           9.4764    0.7254    0.0000 C.2     1  UNL1        0.3040
     26 C          10.1037   -0.0533    0.0000 C.3     1  UNL1        0.0332
     27 H           4.1314    0.9080    0.0000 H       1  UNL1        0.0312
     28 H           3.8825   -2.0381    0.0000 H       1  UNL1        0.0311
     29 H           5.2551    1.5448    0.0000 H       1  UNL1        0.0273
     30 H           5.0436    0.8471    0.0000 H       1  UNL1        0.0273
     31 H           6.5519    2.8331    0.0000 H       1  UNL1        0.0305
     32 H           6.6783   -0.3735    0.0000 H       1  UNL1        0.0274
     33 H           7.2013    0.1959    0.0000 H       1  UNL1        0.0274
     34 H           5.8960   -1.7516    0.0000 H       1  UNL1        0.0271
     35 H           6.2836   -1.0537    0.0000 H       1  UNL1        0.0271
     36 H           7.1179    1.7657    0.0000 H       1  UNL1        0.0336
     37 H           4.2795    1.8634    0.0000 H       1  UNL1        0.0268
     38 H           4.0553    1.1235    0.0000 H       1  UNL1        0.0268
     39 H           4.3847   -2.1824    0.0000 H       1  UNL1        0.0268
     40 H           5.1830   -2.1754    0.0000 H       1  UNL1        0.0268
     41 H           5.4876    2.6827    0.0000 H       1  UNL1        0.0268
     42 H           4.7694    2.3967    0.0000 H       1  UNL1        0.0268
     43 H           3.3541    0.8816    0.0000 H       1  UNL1        0.0271
     44 H           2.5559    0.8930    0.0000 H       1  UNL1        0.0271
     45 H           4.3269    0.8371    0.0000 H       1  UNL1        0.0344
     46 H           3.8162    1.4490    0.0000 H       1  UNL1        0.0344
     47 H           1.3894   -1.0970    0.0000 H       1  UNL1        0.0271
     48 H           1.7894   -1.7879    0.0000 H       1  UNL1        0.0271
     49 H           1.7955    0.4645    0.0000 H       1  UNL1        0.0266
     50 H           1.3918   -0.2242    0.0000 H       1  UNL1        0.0266
     51 H           8.4039    1.6494    0.0000 H       1  UNL1        0.0700
     52 H           7.6605    1.9369    0.0000 H       1  UNL1        0.0700
     53 H           1.9104   -2.3077    0.0000 H       1  UNL1        0.0235
     54 H           2.1448   -3.1526    0.0000 H       1  UNL1        0.0235
     55 H           2.9897   -2.9182    0.0000 H       1  UNL1        0.0235
     56 H           2.9158   -2.9188    0.0000 H       1  UNL1        0.0235
     57 H           3.7647   -3.1383    0.0000 H       1  UNL1        0.0235
     58 H           3.9841   -2.2894    0.0000 H       1  UNL1        0.0235
     59 H           2.2921    0.7861    0.0000 H       1  UNL1        0.1026
     60 H           9.6209   -0.4423    0.0000 H       1  UNL1        0.0342
     61 H          10.4927   -0.5361    0.0000 H       1  UNL1        0.0342
     62 H          10.5865    0.3357    0.0000 H       1  UNL1        0.0342
@<TRIPOS>BOND
     1     1    21    1
     2     1    25    1
     3     2    24    2
     4     3    25    2
     5     4     5    1
     6     4     8    1
     7     4    10    1
     8     4    11    1
     9     5     6    1
    10     5    13    1
    11     5    27    1
    12     6     7    1
    13     6    17    1
    14     6    18    1
    15     7    14    1
    16     7    15    1
    17     7    28    1
    18     8     9    1
    19     8    29    1
    20     8    30    1
    21     9    12    1
    22     9    16    1
    23     9    31    1
    24    10    12    1
    25    10    32    1
    26    10    33    1
    27    11    14    1
    28    11    34    1
    29    11    35    1
    30    12    21    1
    31    12    36    1
    32    13    16    1
    33    13    37    1
    34    13    38    1
    35    14    39    1
    36    14    40    1
    37    15    19    1
    38    15    22    1
    39    15    23    1
    40    16    41    1
    41    16    42    1
    42    17    20    1
    43    17    43    1
    44    17    44    1
    45    18    24    1
    46    18    45    1
    47    18    46    1
    48    19    20    1
    49    19    47    1
    50    19    48    1
    51    20    49    1
    52    20    50    1
    53    21    51    1
    54    21    52    1
    55    22    53    1
    56    22    54    1
    57    22    55    1
    58    23    56    1
    59    23    57    1
    60    23    58    1
    61    24    59    1
    62    25    26    1
    63    26    60    1
    64    26    61    1
    65    26    62    1
