@<TRIPOS>MOLECULE
IMPHY017111
 36 38 0 0 0
SMALL
GASTEIGER

@<TRIPOS>ATOM
      1 O           3.5836    0.2222    0.0000 O.2     1  UNL1       -0.4872
      2 O           5.3958   -2.5826    0.0000 O.2     1  UNL1       -0.2834
      3 O           7.1279   -1.5825    0.0000 O.2     1  UNL1       -0.2832
      4 O           8.0479    1.9626    0.0000 O.3     1  UNL1       -0.5067
      5 C           3.5836   -1.3873    0.0000 C.3     1  UNL1        0.0340
      6 C           3.0000   -0.5826    0.0000 C.3     1  UNL1        0.1067
      7 C           4.5298   -1.0825    0.0000 C.2     1  UNL1        0.0544
      8 C           4.5298   -0.0825    0.0000 C.2     1  UNL1        0.1365
      9 C           2.7736   -1.9737    0.0000 C.3     1  UNL1       -0.0522
     10 C           3.8910   -2.3389    0.0000 C.3     1  UNL1       -0.0522
     11 C           5.3958    0.4174    0.0000 C.ar    1  UNL1        0.0311
     12 C           2.0000   -0.5826    0.0000 C.3     1  UNL1       -0.0270
     13 C           5.3958   -1.5825    0.0000 C.2     1  UNL1        0.2331
     14 C           6.2619   -0.0825    0.0000 C.ar    1  UNL1        0.0399
     15 C           6.2619   -1.0825    0.0000 C.2     1  UNL1        0.2335
     16 C           5.3798    1.4590    0.0000 C.ar    1  UNL1       -0.0357
     17 C           7.1719    0.4243    0.0000 C.ar    1  UNL1       -0.0086
     18 C           6.2778    1.9867    0.0000 C.ar    1  UNL1       -0.0166
     19 C           7.1799    1.4659    0.0000 C.ar    1  UNL1        0.1178
     20 C           4.5080    1.9489    0.0000 C.3     1  UNL1       -0.0389
     21 H           2.7183   -0.0302    0.0000 H       1  UNL1        0.0739
     22 H           2.4100   -1.4714    0.0000 H       1  UNL1        0.0239
     23 H           2.2714   -2.3372    0.0000 H       1  UNL1        0.0239
     24 H           3.1371   -2.4759    0.0000 H       1  UNL1        0.0239
     25 H           3.3010   -2.5294    0.0000 H       1  UNL1        0.0239
     26 H           4.0816   -2.9289    0.0000 H       1  UNL1        0.0239
     27 H           4.4810   -2.1483    0.0000 H       1  UNL1        0.0239
     28 H           2.0000    0.0375    0.0000 H       1  UNL1        0.0265
     29 H           1.3800   -0.5826    0.0000 H       1  UNL1        0.0265
     30 H           2.0000   -1.2026    0.0000 H       1  UNL1        0.0265
     31 H           7.7052    0.1081    0.0000 H       1  UNL1        0.0661
     32 H           6.2754    2.6067    0.0000 H       1  UNL1        0.0657
     33 H           4.8118    2.4894    0.0000 H       1  UNL1        0.0278
     34 H           3.9676    2.2527    0.0000 H       1  UNL1        0.0278
     35 H           4.2043    1.4084    0.0000 H       1  UNL1        0.0278
     36 H           8.0502    2.5826    0.0000 H       1  UNL1        0.2921
@<TRIPOS>BOND
     1     1     6    1
     2     1     8    1
     3     2    13    2
     4     3    15    2
     5     4    19    1
     6     4    36    1
     7     5     6    1
     8     5     7    1
     9     5     9    1
    10     5    10    1
    11     6    12    1
    12     6    21    1
    13     7     8    2
    14     7    13    1
    15     8    11    1
    16     9    22    1
    17     9    23    1
    18     9    24    1
    19    10    25    1
    20    10    26    1
    21    10    27    1
    22    11    14   ar
    23    11    16   ar
    24    12    28    1
    25    12    29    1
    26    12    30    1
    27    13    15    1
    28    14    15    1
    29    14    17   ar
    30    16    18   ar
    31    16    20    1
    32    17    19   ar
    33    17    31    1
    34    18    19   ar
    35    18    32    1
    36    20    33    1
    37    20    34    1
    38    20    35    1
