@<TRIPOS>MOLECULE
IMPHY011609
 96 97 0 0 0
SMALL
GASTEIGER

@<TRIPOS>ATOM
      1 C           3.0000   -7.7500    0.0000 C.3     1  UNL1       -0.0247
      2 C           3.8660   -7.2500    0.0000 C.3     1  UNL1        0.0033
      3 C           3.0000   -8.7500    0.0000 C.3     1  UNL1       -0.0436
      4 C           3.8660   -9.2500    0.0000 C.3     1  UNL1       -0.0340
      5 C           4.7320   -7.7500    0.0000 C.2     1  UNL1       -0.0692
      6 C          12.5263    7.7500    0.0000 C.3     1  UNL1       -0.0099
      7 C           2.0000   -7.7500    0.0000 C.3     1  UNL1       -0.0590
      8 C           2.5000   -6.8840    0.0000 C.3     1  UNL1       -0.0590
      9 C           4.7320   -8.7500    0.0000 C.2     1  UNL1       -0.0844
     10 C          12.5263    8.7500    0.0000 C.3     1  UNL1       -0.0436
     11 C           3.8660   -6.2500    0.0000 C.2     1  UNL1       -0.0762
     12 C          11.6603    9.2500    0.0000 C.3     1  UNL1       -0.0486
     13 C          11.6603    7.2500    0.0000 C.2     1  UNL1       -0.0427
     14 C          10.7942    8.7500    0.0000 C.3     1  UNL1       -0.0314
     15 C          10.7942    7.7500    0.0000 C.2     1  UNL1       -0.0689
     16 C           5.5981   -7.2500    0.0000 C.3     1  UNL1       -0.0432
     17 C          13.5263    7.7500    0.0000 C.3     1  UNL1       -0.0558
     18 C          13.0263    6.8840    0.0000 C.3     1  UNL1       -0.0558
     19 C           4.7320   -5.7500    0.0000 C.2     1  UNL1       -0.0622
     20 C          11.6603    6.2500    0.0000 C.2     1  UNL1       -0.0579
     21 C           9.9282    7.2500    0.0000 C.3     1  UNL1       -0.0432
     22 C           4.7320   -4.7500    0.0000 C.2     1  UNL1       -0.0507
     23 C          10.7942    5.7500    0.0000 C.2     1  UNL1       -0.0586
     24 C           3.8660   -4.2500    0.0000 C.3     1  UNL1       -0.0397
     25 C          10.7942    4.7500    0.0000 C.2     1  UNL1       -0.0504
     26 C           5.5981   -4.2500    0.0000 C.2     1  UNL1       -0.0588
     27 C          11.6603    4.2500    0.0000 C.3     1  UNL1       -0.0397
     28 C           9.9282    4.2500    0.0000 C.2     1  UNL1       -0.0588
     29 C           5.5981   -3.2500    0.0000 C.2     1  UNL1       -0.0613
     30 C           9.9282    3.2500    0.0000 C.2     1  UNL1       -0.0613
     31 C           6.4641   -2.7500    0.0000 C.2     1  UNL1       -0.0588
     32 C           6.4641   -1.7500    0.0000 C.2     1  UNL1       -0.0504
     33 C           9.0622    2.7500    0.0000 C.2     1  UNL1       -0.0588
     34 C           9.0622    1.7500    0.0000 C.2     1  UNL1       -0.0504
     35 C           5.5981   -1.2500    0.0000 C.3     1  UNL1       -0.0397
     36 C           7.3301   -1.2500    0.0000 C.2     1  UNL1       -0.0588
     37 C           8.1962    1.2500    0.0000 C.2     1  UNL1       -0.0588
     38 C           9.9282    1.2500    0.0000 C.3     1  UNL1       -0.0397
     39 C           7.3301   -0.2500    0.0000 C.2     1  UNL1       -0.0615
     40 C           8.1962    0.2500    0.0000 C.2     1  UNL1       -0.0615
     41 H           4.4030   -6.9400    0.0000 H       1  UNL1        0.0393
     42 H           2.3894   -8.6423    0.0000 H       1  UNL1        0.0274
     43 H           2.7880   -9.3326    0.0000 H       1  UNL1        0.0274
     44 H           3.4675   -9.7250    0.0000 H       1  UNL1        0.0308
     45 H           4.2646   -9.7250    0.0000 H       1  UNL1        0.0308
     46 H           2.0000   -7.1300    0.0000 H       1  UNL1        0.0235
     47 H           1.3800   -7.7500    0.0000 H       1  UNL1        0.0235
     48 H           2.0000   -8.3700    0.0000 H       1  UNL1        0.0235
     49 H           3.0369   -6.5740    0.0000 H       1  UNL1        0.0235
     50 H           2.1900   -6.3470    0.0000 H       1  UNL1        0.0235
     51 H           1.9631   -7.1940    0.0000 H       1  UNL1        0.0235
     52 H          13.1369    8.6423    0.0000 H       1  UNL1        0.0274
     53 H          12.7383    9.3326    0.0000 H       1  UNL1        0.0274
     54 H           5.2690   -9.0600    0.0000 H       1  UNL1        0.0572
     55 H           3.3291   -5.9400    0.0000 H       1  UNL1        0.0578
     56 H          12.0588    9.7250    0.0000 H       1  UNL1        0.0269
     57 H          11.2617    9.7250    0.0000 H       1  UNL1        0.0269
     58 H          10.5822    9.3326    0.0000 H       1  UNL1        0.0310
     59 H          10.1836    8.6423    0.0000 H       1  UNL1        0.0310
     60 H           5.9081   -7.7869    0.0000 H       1  UNL1        0.0275
     61 H           6.1350   -6.9400    0.0000 H       1  UNL1        0.0275
     62 H           5.2881   -6.7131    0.0000 H       1  UNL1        0.0275
     63 H          13.5263    7.1300    0.0000 H       1  UNL1        0.0238
     64 H          14.1463    7.7500    0.0000 H       1  UNL1        0.0238
     65 H          13.5263    8.3700    0.0000 H       1  UNL1        0.0238
     66 H          12.4893    6.5740    0.0000 H       1  UNL1        0.0238
     67 H          13.3363    6.3470    0.0000 H       1  UNL1        0.0238
     68 H          13.5632    7.1940    0.0000 H       1  UNL1        0.0238
     69 H           5.2690   -6.0600    0.0000 H       1  UNL1        0.0617
     70 H          12.1972    5.9400    0.0000 H       1  UNL1        0.0621
     71 H           9.6182    7.7869    0.0000 H       1  UNL1        0.0275
     72 H           9.3913    6.9400    0.0000 H       1  UNL1        0.0275
     73 H          10.2382    6.7131    0.0000 H       1  UNL1        0.0275
     74 H          10.2573    6.0600    0.0000 H       1  UNL1        0.0620
     75 H           4.1760   -3.7131    0.0000 H       1  UNL1        0.0278
     76 H           3.3291   -3.9400    0.0000 H       1  UNL1        0.0278
     77 H           3.5560   -4.7869    0.0000 H       1  UNL1        0.0278
     78 H           6.1350   -4.5600    0.0000 H       1  UNL1        0.0620
     79 H          11.3503    3.7131    0.0000 H       1  UNL1        0.0278
     80 H          12.1972    3.9400    0.0000 H       1  UNL1        0.0278
     81 H          11.9703    4.7869    0.0000 H       1  UNL1        0.0278
     82 H           9.3913    4.5600    0.0000 H       1  UNL1        0.0620
     83 H           5.0611   -2.9400    0.0000 H       1  UNL1        0.0618
     84 H          10.4651    2.9400    0.0000 H       1  UNL1        0.0618
     85 H           7.0010   -3.0600    0.0000 H       1  UNL1        0.0620
     86 H           8.5252    3.0600    0.0000 H       1  UNL1        0.0620
     87 H           5.9081   -0.7131    0.0000 H       1  UNL1        0.0278
     88 H           5.0611   -0.9400    0.0000 H       1  UNL1        0.0278
     89 H           5.2881   -1.7869    0.0000 H       1  UNL1        0.0278
     90 H           7.8671   -1.5600    0.0000 H       1  UNL1        0.0620
     91 H           7.6592    1.5600    0.0000 H       1  UNL1        0.0620
     92 H           9.6182    0.7131    0.0000 H       1  UNL1        0.0278
     93 H          10.4651    0.9400    0.0000 H       1  UNL1        0.0278
     94 H          10.2382    1.7869    0.0000 H       1  UNL1        0.0278
     95 H           6.7932    0.0600    0.0000 H       1  UNL1        0.0618
     96 H           8.7331   -0.0600    0.0000 H       1  UNL1        0.0618
@<TRIPOS>BOND
     1     1     2    1
     2     1     3    1
     3     1     7    1
     4     1     8    1
     5     2     5    1
     6     2    11    1
     7     2    41    1
     8     3     4    1
     9     3    42    1
    10     3    43    1
    11     4     9    1
    12     4    44    1
    13     4    45    1
    14     5     9    2
    15     5    16    1
    16     6    10    1
    17     6    13    1
    18     6    17    1
    19     6    18    1
    20     7    46    1
    21     7    47    1
    22     7    48    1
    23     8    49    1
    24     8    50    1
    25     8    51    1
    26     9    54    1
    27    10    12    1
    28    10    52    1
    29    10    53    1
    30    11    19    2
    31    11    55    1
    32    12    14    1
    33    12    56    1
    34    12    57    1
    35    13    15    2
    36    13    20    1
    37    14    15    1
    38    14    58    1
    39    14    59    1
    40    15    21    1
    41    16    60    1
    42    16    61    1
    43    16    62    1
    44    17    63    1
    45    17    64    1
    46    17    65    1
    47    18    66    1
    48    18    67    1
    49    18    68    1
    50    19    22    1
    51    19    69    1
    52    20    23    2
    53    20    70    1
    54    21    71    1
    55    21    72    1
    56    21    73    1
    57    22    24    1
    58    22    26    2
    59    23    25    1
    60    23    74    1
    61    24    75    1
    62    24    76    1
    63    24    77    1
    64    25    27    1
    65    25    28    2
    66    26    29    1
    67    26    78    1
    68    27    79    1
    69    27    80    1
    70    27    81    1
    71    28    30    1
    72    28    82    1
    73    29    31    2
    74    29    83    1
    75    30    33    2
    76    30    84    1
    77    31    32    1
    78    31    85    1
    79    32    35    1
    80    32    36    2
    81    33    34    1
    82    33    86    1
    83    34    37    2
    84    34    38    1
    85    35    87    1
    86    35    88    1
    87    35    89    1
    88    36    39    1
    89    36    90    1
    90    37    40    1
    91    37    91    1
    92    38    92    1
    93    38    93    1
    94    38    94    1
    95    39    40    2
    96    39    95    1
    97    40    96    1
