@<TRIPOS>MOLECULE
IMPHY005648
 55 58 0 0 0
SMALL
GASTEIGER

@<TRIPOS>ATOM
      1 O           2.5035    0.3702    0.0000 O.3     1  UNL1       -0.3734
      2 O           3.2494   -0.8711    0.0000 O.3     1  UNL1       -0.3912
      3 O           1.5401    2.7718    0.0000 O.3     1  UNL1       -0.3887
      4 C           5.0528   -0.7409    0.0000 C.3     1  UNL1        0.0060
      5 C           5.9855   -1.2048    0.0000 C.3     1  UNL1       -0.0272
      6 C           4.9962    0.2992    0.0000 C.3     1  UNL1        0.0144
      7 C           6.0695   -2.2865    0.0000 C.3     1  UNL1       -0.0314
      8 C           4.1395   -1.3267    0.0000 C.3     1  UNL1        0.0615
      9 C           3.7752    1.1648    0.0000 C.3     1  UNL1        0.0667
     10 C           6.8490   -0.6223    0.0000 C.3     1  UNL1       -0.0454
     11 C           5.8252    0.8584    0.0000 C.2     1  UNL1       -0.0667
     12 C           5.1700   -2.8932    0.0000 C.3     1  UNL1       -0.0452
     13 C           3.5164    2.1308    0.0000 C.3     1  UNL1        0.0166
     14 C           6.7684    0.4162    0.0000 C.3     1  UNL1       -0.0311
     15 C           4.1985   -2.4101    0.0000 C.3     1  UNL1       -0.0258
     16 C           4.2530    3.1134    0.0000 C.3     1  UNL1       -0.0147
     17 C           4.0592   -0.6287    0.0000 C.3     1  UNL1       -0.0563
     18 C           5.5496    1.8196    0.0000 C.2     1  UNL1       -0.0759
     19 C           2.0847    1.9331    0.0000 C.3     1  UNL1        0.0873
     20 C           6.6319   -3.1134    0.0000 C.3     1  UNL1       -0.0595
     21 C           7.0668   -2.2129    0.0000 C.3     1  UNL1       -0.0595
     22 C           1.7264    0.9995    0.0000 C.3     1  UNL1        0.0748
     23 C           3.2575    3.0967    0.0000 C.3     1  UNL1       -0.0536
     24 H           6.7509   -1.5744    0.0000 H       1  UNL1        0.0312
     25 H           4.2915   -0.1762    0.0000 H       1  UNL1        0.0377
     26 H           3.6196   -1.6644    0.0000 H       1  UNL1        0.0599
     27 H           3.9952    0.3438    0.0000 H       1  UNL1        0.0602
     28 H           7.4498   -0.4692    0.0000 H       1  UNL1        0.0271
     29 H           7.1027   -1.1880    0.0000 H       1  UNL1        0.0271
     30 H           5.5996   -3.3403    0.0000 H       1  UNL1        0.0271
     31 H           4.8030   -3.3929    0.0000 H       1  UNL1        0.0271
     32 H           6.9316    1.0144    0.0000 H       1  UNL1        0.0310
     33 H           7.3856    0.3578    0.0000 H       1  UNL1        0.0310
     34 H           4.0215   -3.0043    0.0000 H       1  UNL1        0.0290
     35 H           3.5828   -2.3373    0.0000 H       1  UNL1        0.0290
     36 H           3.9352    3.6457    0.0000 H       1  UNL1        0.0299
     37 H           4.8661    3.2053    0.0000 H       1  UNL1        0.0299
     38 H           3.9896   -1.2448    0.0000 H       1  UNL1        0.0236
     39 H           3.4431   -0.5592    0.0000 H       1  UNL1        0.0236
     40 H           4.1287   -0.0126    0.0000 H       1  UNL1        0.0236
     41 H           5.9592    2.2850    0.0000 H       1  UNL1        0.0578
     42 H           1.4681    1.8683    0.0000 H       1  UNL1        0.0625
     43 H           7.1446   -2.7647    0.0000 H       1  UNL1        0.0235
     44 H           6.9806   -3.6260    0.0000 H       1  UNL1        0.0235
     45 H           6.1192   -3.4620    0.0000 H       1  UNL1        0.0235
     46 H           7.0212   -1.5946    0.0000 H       1  UNL1        0.0235
     47 H           7.6851   -2.1672    0.0000 H       1  UNL1        0.0235
     48 H           7.1124   -2.8312    0.0000 H       1  UNL1        0.0235
     49 H           1.3887    0.4795    0.0000 H       1  UNL1        0.0586
     50 H           1.1739    1.2810    0.0000 H       1  UNL1        0.0586
     51 H           2.6587    2.9362    0.0000 H       1  UNL1        0.0239
     52 H           3.0971    3.6956    0.0000 H       1  UNL1        0.0239
     53 H           3.8564    3.2571    0.0000 H       1  UNL1        0.0239
     54 H           2.7288   -1.2078    0.0000 H       1  UNL1        0.2098
     55 H           0.9209    2.7393    0.0000 H       1  UNL1        0.2099
@<TRIPOS>BOND
     1     1     9    1
     2     1    22    1
     3     8     2    1
     4     2    54    1
     5    19     3    1
     6     3    55    1
     7     4     5    1
     8     4     6    1
     9     4     8    1
    10     4    17    1
    11     5     7    1
    12     5    10    1
    13     5    24    1
    14     6     9    1
    15     6    11    1
    16     6    25    1
    17     7    12    1
    18     7    20    1
    19     7    21    1
    20     8    15    1
    21     8    26    1
    22     9    16    1
    23     9    27    1
    24    10    14    1
    25    10    28    1
    26    10    29    1
    27    11    14    1
    28    11    18    2
    29    12    15    1
    30    12    30    1
    31    12    31    1
    32    13    16    1
    33    13    18    1
    34    13    19    1
    35    13    23    1
    36    14    32    1
    37    14    33    1
    38    15    34    1
    39    15    35    1
    40    16    36    1
    41    16    37    1
    42    17    38    1
    43    17    39    1
    44    17    40    1
    45    18    41    1
    46    19    22    1
    47    19    42    1
    48    20    43    1
    49    20    44    1
    50    20    45    1
    51    21    46    1
    52    21    47    1
    53    21    48    1
    54    22    49    1
    55    22    50    1
    56    23    51    1
    57    23    52    1
    58    23    53    1
