@<TRIPOS>MOLECULE
IMPHY007365
 54 54 0 0 0
SMALL
GASTEIGER

@<TRIPOS>ATOM
      1 P           3.4030    0.5415    0.0000 P.3     1  UNL1        0.4728
      2 P           8.5991    0.5415    0.0000 P.3     1  UNL1        0.4728
      3 P           3.5030   -1.6014    0.0000 P.3     1  UNL1        0.4728
      4 P           7.7331   -1.9585    0.0000 P.3     1  UNL1        0.4728
      5 P           5.5010   -2.8245    0.0000 P.3     1  UNL1        0.4728
      6 P           6.8671    2.5415    0.0000 P.3     1  UNL1        0.4728
      7 O           6.0010    2.0415    0.0000 O.3     1  UNL1       -0.2780
      8 O           4.2690    1.0415    0.0000 O.3     1  UNL1       -0.2780
      9 O           7.7331    1.0415    0.0000 O.3     1  UNL1       -0.2780
     10 O           4.2690   -0.9585    0.0000 O.3     1  UNL1       -0.2780
     11 O           7.7331   -0.9585    0.0000 O.3     1  UNL1       -0.2780
     12 O           6.0010   -1.9585    0.0000 O.3     1  UNL1       -0.2780
     13 O           2.8602   -0.8351    0.0000 O.3     1  UNL1       -0.3026
     14 O           7.7331    3.0415    0.0000 O.3     1  UNL1       -0.3026
     15 O           7.7331   -2.9585    0.0000 O.3     1  UNL1       -0.3026
     16 O           8.7331   -1.9585    0.0000 O.3     1  UNL1       -0.3026
     17 O           6.3671   -3.3245    0.0000 O.3     1  UNL1       -0.3026
     18 O           4.5162   -2.6508    0.0000 O.3     1  UNL1       -0.3026
     19 O           2.7370   -2.2442    0.0000 O.3     1  UNL1       -0.3026
     20 O           9.4651    0.0415    0.0000 O.3     1  UNL1       -0.3026
     21 O           9.0991    1.4076    0.0000 O.3     1  UNL1       -0.3026
     22 O           2.5369    0.0415    0.0000 O.3     1  UNL1       -0.3026
     23 O           2.9030    1.4076    0.0000 O.3     1  UNL1       -0.3026
     24 O           6.3671    3.4076    0.0000 O.3     1  UNL1       -0.3026
     25 O           3.6767   -2.5861    0.0000 O.2     1  UNL1       -0.2275
     26 O           5.0010   -3.6905    0.0000 O.2     1  UNL1       -0.2275
     27 O           6.7331   -1.9585    0.0000 O.2     1  UNL1       -0.2275
     28 O           3.9030   -0.3245    0.0000 O.2     1  UNL1       -0.2275
     29 O           7.3671    1.6755    0.0000 O.2     1  UNL1       -0.2275
     30 O           8.0991   -0.3245    0.0000 O.2     1  UNL1       -0.2275
     31 C           6.0010    1.0415    0.0000 C.3     1  UNL1        0.1283
     32 C           5.1350    0.5415    0.0000 C.3     1  UNL1        0.1283
     33 C           6.8671    0.5415    0.0000 C.3     1  UNL1        0.1283
     34 C           5.1350   -0.4585    0.0000 C.3     1  UNL1        0.1283
     35 C           6.8671   -0.4585    0.0000 C.3     1  UNL1        0.1283
     36 C           6.0010   -0.9585    0.0000 C.3     1  UNL1        0.1283
     37 H           6.5380    1.3515    0.0000 H       1  UNL1        0.0656
     38 H           4.5981    0.2315    0.0000 H       1  UNL1        0.0656
     39 H           7.4040    0.2315    0.0000 H       1  UNL1        0.0656
     40 H           5.1350   -1.0785    0.0000 H       1  UNL1        0.0656
     41 H           6.8671   -1.0785    0.0000 H       1  UNL1        0.0656
     42 H           5.4641   -1.2685    0.0000 H       1  UNL1        0.0656
     43 H           9.7191    1.4076    0.0000 H       1  UNL1        0.2220
     44 H           4.3042   -2.0682    0.0000 H       1  UNL1        0.2220
     45 H           6.3671   -3.9445    0.0000 H       1  UNL1        0.2220
     46 H           9.0431   -2.4954    0.0000 H       1  UNL1        0.2220
     47 H           8.2700   -3.2685    0.0000 H       1  UNL1        0.2220
     48 H           2.2496   -0.9428    0.0000 H       1  UNL1        0.2220
     49 H           2.1543   -2.0321    0.0000 H       1  UNL1        0.2220
     50 H          10.0021    0.3515    0.0000 H       1  UNL1        0.2220
     51 H           2.0000    0.3515    0.0000 H       1  UNL1        0.2220
     52 H           2.2830    1.4076    0.0000 H       1  UNL1        0.2220
     53 H           7.7331    3.6615    0.0000 H       1  UNL1        0.2220
     54 H           6.6771    3.9445    0.0000 H       1  UNL1        0.2220
@<TRIPOS>BOND
     1     1     8    1
     2     1    22    1
     3     1    23    1
     4     1    28    2
     5     2     9    1
     6     2    20    1
     7     2    21    1
     8     2    30    2
     9     3    10    1
    10     3    13    1
    11     3    19    1
    12     3    25    2
    13     4    11    1
    14     4    15    1
    15     4    16    1
    16     4    27    2
    17     5    12    1
    18     5    17    1
    19     5    18    1
    20     5    26    2
    21     6     7    1
    22     6    14    1
    23     6    24    1
    24     6    29    2
    25     7    31    1
    26     8    32    1
    27     9    33    1
    28    10    34    1
    29    11    35    1
    30    12    36    1
    31    13    48    1
    32    14    53    1
    33    15    47    1
    34    16    46    1
    35    17    45    1
    36    18    44    1
    37    19    49    1
    38    20    50    1
    39    21    43    1
    40    22    51    1
    41    23    52    1
    42    24    54    1
    43    31    32    1
    44    31    33    1
    45    31    37    1
    46    32    34    1
    47    32    38    1
    48    33    35    1
    49    33    39    1
    50    34    36    1
    51    34    40    1
    52    35    36    1
    53    35    41    1
    54    36    42    1
