@<TRIPOS>MOLECULE
IMPHY001750
 57 59 0 0 0
SMALL
GASTEIGER

@<TRIPOS>ATOM
      1 O           8.0901   -1.8017    0.0000 O.2     1  UNL1       -0.4618
      2 O           6.3301    1.2329    0.0000 O.3     1  UNL1       -0.5055
      3 O          10.7321   -1.2396    0.0000 O.3     1  UNL1       -0.5058
      4 O           4.5981   -1.7671    0.0000 O.3     1  UNL1       -0.5062
      5 O           8.0785    1.2675    0.0000 O.2     1  UNL1       -0.2863
      6 O          12.4525    1.7671    0.0000 O.3     1  UNL1       -0.5064
      7 C           7.1962   -0.2671    0.0000 C.ar    1  UNL1        0.1063
      8 C           8.9962   -0.2463    0.0000 C.ar    1  UNL1        0.0679
      9 C           5.4641   -0.2671    0.0000 C.ar    1  UNL1        0.0400
     10 C           9.8602    0.2571    0.0000 C.ar    1  UNL1        0.0307
     11 C           7.1962   -1.2671    0.0000 C.ar    1  UNL1        0.1454
     12 C           6.3301    0.2329    0.0000 C.ar    1  UNL1        0.1381
     13 C           8.0901    0.2676    0.0000 C.ar    1  UNL1        0.2038
     14 C          11.5923    0.2638    0.0000 C.ar    1  UNL1        0.0397
     15 C           4.5981    0.2329    0.0000 C.3     1  UNL1       -0.0023
     16 C          10.7282   -0.2396    0.0000 C.ar    1  UNL1        0.1317
     17 C           5.4641   -1.2671    0.0000 C.ar    1  UNL1        0.1273
     18 C           6.3301   -1.7671    0.0000 C.ar    1  UNL1        0.0234
     19 C          12.4602   -0.2329    0.0000 C.3     1  UNL1       -0.0023
     20 C           8.9962   -1.2879    0.0000 C.ar    1  UNL1        0.1040
     21 C           9.8564    1.2571    0.0000 C.ar    1  UNL1       -0.0469
     22 C          11.5884    1.2637    0.0000 C.ar    1  UNL1        0.1238
     23 C          10.7205    1.7604    0.0000 C.ar    1  UNL1       -0.0191
     24 C           3.7320   -0.2671    0.0000 C.2     1  UNL1       -0.0807
     25 C          13.3243    0.2704    0.0000 C.2     1  UNL1       -0.0807
     26 C           2.8660    0.2329    0.0000 C.2     1  UNL1       -0.0793
     27 C          14.1923   -0.2262    0.0000 C.2     1  UNL1       -0.0793
     28 C           2.0000   -0.2671    0.0000 C.3     1  UNL1       -0.0440
     29 C           2.8660    1.2329    0.0000 C.3     1  UNL1       -0.0440
     30 C          15.0564    0.2771    0.0000 C.3     1  UNL1       -0.0440
     31 C          14.1961   -1.2262    0.0000 C.3     1  UNL1       -0.0440
     32 H           4.9966    0.7079    0.0000 H       1  UNL1        0.0358
     33 H           4.1996    0.7079    0.0000 H       1  UNL1        0.0358
     34 H           6.3301   -2.3871    0.0000 H       1  UNL1        0.0691
     35 H          12.0635   -0.7094    0.0000 H       1  UNL1        0.0358
     36 H          12.8606   -0.7063    0.0000 H       1  UNL1        0.0358
     37 H           9.5319   -1.6000    0.0000 H       1  UNL1        0.1037
     38 H           9.3183    1.5650    0.0000 H       1  UNL1        0.0626
     39 H          10.7181    2.3804    0.0000 H       1  UNL1        0.0654
     40 H           3.7320   -0.8871    0.0000 H       1  UNL1        0.0575
     41 H          13.3219    0.8904    0.0000 H       1  UNL1        0.0575
     42 H           5.7932    1.5429    0.0000 H       1  UNL1        0.2922
     43 H          11.2702   -1.5475    0.0000 H       1  UNL1        0.2922
     44 H           4.5981   -2.3871    0.0000 H       1  UNL1        0.2921
     45 H           1.6900    0.2699    0.0000 H       1  UNL1        0.0274
     46 H           1.4631   -0.5771    0.0000 H       1  UNL1        0.0274
     47 H           2.3100   -0.8040    0.0000 H       1  UNL1        0.0274
     48 H           3.4860    1.2329    0.0000 H       1  UNL1        0.0274
     49 H           2.8660    1.8529    0.0000 H       1  UNL1        0.0274
     50 H           2.2460    1.2329    0.0000 H       1  UNL1        0.0274
     51 H          12.4501    2.3871    0.0000 H       1  UNL1        0.2921
     52 H          15.3684   -0.2586    0.0000 H       1  UNL1        0.0274
     53 H          15.5921    0.5892    0.0000 H       1  UNL1        0.0274
     54 H          14.7443    0.8128    0.0000 H       1  UNL1        0.0274
     55 H          13.5761   -1.2286    0.0000 H       1  UNL1        0.0274
     56 H          14.1985   -1.8462    0.0000 H       1  UNL1        0.0274
     57 H          14.8161   -1.2238    0.0000 H       1  UNL1        0.0274
@<TRIPOS>BOND
     1     1    11   ar
     2     1    20   ar
     3     2    12    1
     4     2    42    1
     5     3    16    1
     6     3    43    1
     7     4    17    1
     8     4    44    1
     9     5    13    2
    10     6    22    1
    11     6    51    1
    12     7    11   ar
    13     7    12   ar
    14     7    13   ar
    15     8    10    1
    16     8    13   ar
    17     8    20   ar
    18     9    12   ar
    19     9    15    1
    20     9    17   ar
    21    10    16   ar
    22    10    21   ar
    23    11    18   ar
    24    14    16   ar
    25    14    19    1
    26    14    22   ar
    27    15    24    1
    28    15    32    1
    29    15    33    1
    30    17    18   ar
    31    18    34    1
    32    19    25    1
    33    19    35    1
    34    19    36    1
    35    20    37    1
    36    21    23   ar
    37    21    38    1
    38    22    23   ar
    39    23    39    1
    40    24    26    2
    41    24    40    1
    42    25    27    2
    43    25    41    1
    44    26    28    1
    45    26    29    1
    46    27    30    1
    47    27    31    1
    48    28    45    1
    49    28    46    1
    50    28    47    1
    51    29    48    1
    52    29    49    1
    53    29    50    1
    54    30    52    1
    55    30    53    1
    56    30    54    1
    57    31    55    1
    58    31    56    1
    59    31    57    1
