@<TRIPOS>MOLECULE
IMPHY005313
 50 53 0 0 0
SMALL
GASTEIGER

@<TRIPOS>ATOM
      1 O           3.9061   -0.1897    0.0000 O.3     1  UNL1       -0.4811
      2 O           7.4260   -0.1897    0.0000 O.2     1  UNL1       -0.4504
      3 O           5.6660    2.8450    0.0000 O.3     1  UNL1       -0.5052
      4 O           7.4144    2.8796    0.0000 O.2     1  UNL1       -0.2863
      5 O           9.2517   -1.2327    0.0000 O.3     1  UNL1       -0.5033
      6 C           3.0000    0.3242    0.0000 C.3     1  UNL1        0.1235
      7 C           4.8000    0.3450    0.0000 C.ar    1  UNL1        0.1393
      8 C           5.6660   -0.1550    0.0000 C.ar    1  UNL1        0.0417
      9 C           4.8000    1.3450    0.0000 C.ar    1  UNL1        0.0591
     10 C           6.5320    0.3450    0.0000 C.ar    1  UNL1        0.1499
     11 C           6.5320    1.3450    0.0000 C.ar    1  UNL1        0.1069
     12 C           3.0000    1.3658    0.0000 C.2     1  UNL1       -0.0408
     13 C           5.6660    1.8450    0.0000 C.ar    1  UNL1        0.1418
     14 C           3.9061    1.8797    0.0000 C.2     1  UNL1       -0.0478
     15 C           5.6660   -1.1550    0.0000 C.3     1  UNL1       -0.0022
     16 C           2.0000    0.3203    0.0000 C.3     1  UNL1       -0.0215
     17 C           2.5033   -0.5438    0.0000 C.3     1  UNL1       -0.0215
     18 C           7.4260    1.8797    0.0000 C.ar    1  UNL1        0.2039
     19 C           8.3321    1.3658    0.0000 C.ar    1  UNL1        0.0683
     20 C           8.3321    0.3242    0.0000 C.ar    1  UNL1        0.1804
     21 C           4.8000   -1.6550    0.0000 C.2     1  UNL1       -0.0807
     22 C           9.2632    1.9227    0.0000 C.ar    1  UNL1       -0.0471
     23 C           9.2632   -0.2327    0.0000 C.ar    1  UNL1        0.1598
     24 C           4.8000   -2.6550    0.0000 C.2     1  UNL1       -0.0793
     25 C          10.2070    1.3875    0.0000 C.ar    1  UNL1       -0.0574
     26 C          10.2070    0.3025    0.0000 C.ar    1  UNL1       -0.0165
     27 C           3.9340   -3.1550    0.0000 C.3     1  UNL1       -0.0440
     28 C           5.6660   -3.1550    0.0000 C.3     1  UNL1       -0.0440
     29 H           2.4643    1.6779    0.0000 H       1  UNL1        0.0611
     30 H           3.9132    2.4996    0.0000 H       1  UNL1        0.0624
     31 H           5.8781   -1.7376    0.0000 H       1  UNL1        0.0358
     32 H           6.2766   -1.0473    0.0000 H       1  UNL1        0.0358
     33 H           1.9652   -0.2358    0.0000 H       1  UNL1        0.0271
     34 H           2.1954   -1.0819    0.0000 H       1  UNL1        0.0271
     35 H           3.0415   -0.8517    0.0000 H       1  UNL1        0.0271
     36 H           1.9976    0.9403    0.0000 H       1  UNL1        0.0271
     37 H           1.3800    0.3179    0.0000 H       1  UNL1        0.0271
     38 H           2.0024   -0.2997    0.0000 H       1  UNL1        0.0271
     39 H           4.2631   -1.3450    0.0000 H       1  UNL1        0.0575
     40 H           9.2560    2.5427    0.0000 H       1  UNL1        0.0626
     41 H           5.1291    3.1550    0.0000 H       1  UNL1        0.2922
     42 H          10.7427    1.6996    0.0000 H       1  UNL1        0.0619
     43 H          10.7427   -0.0096    0.0000 H       1  UNL1        0.0655
     44 H           3.6240   -2.6181    0.0000 H       1  UNL1        0.0274
     45 H           3.3970   -3.4650    0.0000 H       1  UNL1        0.0274
     46 H           4.2440   -3.6919    0.0000 H       1  UNL1        0.0274
     47 H           5.3560   -3.6919    0.0000 H       1  UNL1        0.0274
     48 H           6.2030   -3.4650    0.0000 H       1  UNL1        0.0274
     49 H           5.9760   -2.6181    0.0000 H       1  UNL1        0.0274
     50 H           9.7850   -1.5489    0.0000 H       1  UNL1        0.2923
@<TRIPOS>BOND
     1     1     6    1
     2     1     7    1
     3     2    10   ar
     4     2    20   ar
     5     3    13    1
     6     3    41    1
     7     4    18    2
     8     5    23    1
     9     5    50    1
    10     6    12    1
    11     6    16    1
    12     6    17    1
    13     7     8   ar
    14     7     9   ar
    15     8    10   ar
    16     8    15    1
    17     9    13   ar
    18     9    14    1
    19    10    11   ar
    20    11    13   ar
    21    11    18   ar
    22    12    14    2
    23    12    29    1
    24    14    30    1
    25    15    21    1
    26    15    31    1
    27    15    32    1
    28    16    36    1
    29    16    37    1
    30    16    38    1
    31    17    33    1
    32    17    34    1
    33    17    35    1
    34    18    19   ar
    35    19    20   ar
    36    19    22   ar
    37    20    23   ar
    38    21    24    2
    39    21    39    1
    40    22    25   ar
    41    22    40    1
    42    23    26   ar
    43    24    27    1
    44    24    28    1
    45    25    26   ar
    46    25    42    1
    47    26    43    1
    48    27    44    1
    49    27    45    1
    50    27    46    1
    51    28    47    1
    52    28    48    1
    53    28    49    1
