@<TRIPOS>MOLECULE
IMPHY005366
 29 28 0 0 0
SMALL
GASTEIGER

@<TRIPOS>ATOM
      1 CL          5.6720    2.8285    0.0000 Cl      1  UNL1       -0.1454
      2 O           0.5369    4.1200    0.0000 O.3     2  UNL2       -0.3856
      3 N           2.2690    5.1200    0.0000 N.3     2  UNL2       -0.3138
      4 C           2.2690    4.1200    0.0000 C.3     2  UNL2        0.0347
      5 C           1.4030    3.6200    0.0000 C.3     2  UNL2        0.0952
      6 C           1.4030    2.6200    0.0000 C.ar    2  UNL2       -0.0177
      7 C           3.1350    3.6200    0.0000 C.3     2  UNL2       -0.0470
      8 C           0.5369    2.1200    0.0000 C.ar    2  UNL2       -0.0561
      9 C           2.2690    2.1200    0.0000 C.ar    2  UNL2       -0.0561
     10 C           3.1350    5.6200    0.0000 C.3     2  UNL2       -0.0155
     11 C           0.5369    1.1200    0.0000 C.ar    2  UNL2       -0.0614
     12 C           2.2690    1.1200    0.0000 C.ar    2  UNL2       -0.0614
     13 C           1.4030    0.6200    0.0000 C.ar    2  UNL2       -0.0617
     14 H           3.0051    4.5450    0.0000 H       2  UNL2        0.0486
     15 H           1.4030    4.2400    0.0000 H       2  UNL2        0.0659
     16 H           2.8250    3.0831    0.0000 H       2  UNL2        0.0246
     17 H           3.6720    3.3100    0.0000 H       2  UNL2        0.0246
     18 H           3.4450    4.1569    0.0000 H       2  UNL2        0.0246
     19 H           1.7320    5.4300    0.0000 H       2  UNL2        0.1220
     20 H           0.0000    2.4300    0.0000 H       2  UNL2        0.0621
     21 H           2.8059    2.4300    0.0000 H       2  UNL2        0.0621
     22 H           0.5369    4.7400    0.0000 H       2  UNL2        0.2103
     23 H           3.4450    5.0831    0.0000 H       2  UNL2        0.0388
     24 H           3.6720    5.9300    0.0000 H       2  UNL2        0.0388
     25 H           2.8250    6.1569    0.0000 H       2  UNL2        0.0388
     26 H           0.0000    0.8100    0.0000 H       2  UNL2        0.0618
     27 H           2.8059    0.8100    0.0000 H       2  UNL2        0.0618
     28 H           1.4030    0.0000    0.0000 H       2  UNL2        0.0618
     29 H           6.6720    2.8285    0.0000 H       1  UNL1        0.1454
@<TRIPOS>BOND
     1     1    29    1
     2     5     2    1
     3     2    22    1
     4     3     4    1
     5     3    10    1
     6     3    19    1
     7     4     5    1
     8     4     7    1
     9     4    14    1
    10     5     6    1
    11     5    15    1
    12     6     8   ar
    13     6     9   ar
    14     7    16    1
    15     7    17    1
    16     7    18    1
    17     8    11   ar
    18     8    20    1
    19     9    12   ar
    20     9    21    1
    21    10    23    1
    22    10    24    1
    23    10    25    1
    24    11    13   ar
    25    11    26    1
    26    12    13   ar
    27    12    27    1
    28    13    28    1
