@<TRIPOS>MOLECULE
IMPHY012152
 29 30 0 0 0
SMALL
GASTEIGER

@<TRIPOS>ATOM
      1 O           6.2448    0.5828    0.0000 O.3     1  UNL1       -0.3907
      2 C           3.3649    0.7785    0.0000 C.3     1  UNL1       -0.0053
      3 C           3.6237   -0.1874    0.0000 C.3     1  UNL1       -0.0329
      4 C           4.9964   -0.7795    0.0000 C.3     1  UNL1       -0.0056
      5 C           5.3385    0.1602    0.0000 C.3     1  UNL1        0.0660
      6 C           4.1015    1.7611    0.0000 C.3     1  UNL1       -0.0418
      7 C           1.9660    0.2697    0.0000 C.3     1  UNL1       -0.0450
      8 C           2.2248   -0.6963    0.0000 C.3     1  UNL1       -0.0490
      9 C           3.1061    1.7444    0.0000 C.3     1  UNL1       -0.0572
     10 C           5.8711   -1.2643    0.0000 C.3     1  UNL1       -0.0572
     11 C           4.8056   -1.7611    0.0000 C.3     1  UNL1       -0.0572
     12 H           3.8437   -1.0085    0.0000 H       1  UNL1        0.0307
     13 H           5.2973    0.7789    0.0000 H       1  UNL1        0.0604
     14 H           3.7837    2.2934    0.0000 H       1  UNL1        0.0274
     15 H           4.7147    1.8530    0.0000 H       1  UNL1        0.0274
     16 H           1.3720    0.0919    0.0000 H       1  UNL1        0.0271
     17 H           1.7710    0.8582    0.0000 H       1  UNL1        0.0271
     18 H           2.4197   -1.2848    0.0000 H       1  UNL1        0.0268
     19 H           1.6308   -0.8740    0.0000 H       1  UNL1        0.0268
     20 H           2.5072    1.5839    0.0000 H       1  UNL1        0.0236
     21 H           2.9456    2.3433    0.0000 H       1  UNL1        0.0236
     22 H           3.7050    1.9049    0.0000 H       1  UNL1        0.0236
     23 H           6.1716   -0.7220    0.0000 H       1  UNL1        0.0236
     24 H           6.4133   -1.5649    0.0000 H       1  UNL1        0.0236
     25 H           5.5705   -1.8065    0.0000 H       1  UNL1        0.0236
     26 H           5.4142   -1.8794    0.0000 H       1  UNL1        0.0236
     27 H           4.6873   -2.3697    0.0000 H       1  UNL1        0.0236
     28 H           4.1970   -1.6428    0.0000 H       1  UNL1        0.0236
     29 H           6.2988    1.2005    0.0000 H       1  UNL1        0.2098
@<TRIPOS>BOND
     1     5     1    1
     2     1    29    1
     3     2     5    1
     4     2     6    1
     5     2     7    1
     6     2     9    1
     7     3     4    1
     8     3     6    1
     9     3     8    1
    10     3    12    1
    11     4     5    1
    12     4    10    1
    13     4    11    1
    14     5    13    1
    15     6    14    1
    16     6    15    1
    17     7     8    1
    18     7    16    1
    19     7    17    1
    20     8    18    1
    21     8    19    1
    22     9    20    1
    23     9    21    1
    24     9    22    1
    25    10    23    1
    26    10    24    1
    27    10    25    1
    28    11    26    1
    29    11    27    1
    30    11    28    1
