@<TRIPOS>MOLECULE
IMPHY003057
 80 86 0 0 0
SMALL
GASTEIGER

@<TRIPOS>ATOM
      1 O           6.0178    1.9717    0.0000 O.3     1  UNL1       -0.4600
      2 O           9.5089   -0.1489    0.0000 O.3     1  UNL1       -0.4571
      3 O           6.3265   -2.8427    0.0000 O.3     1  UNL1       -0.3880
      4 O           7.3567    2.2320    0.0000 O.2     1  UNL1       -0.2502
      5 O           3.6409   -1.4013    0.0000 O.3     1  UNL1       -0.4586
      6 O           2.5951   -0.4472    0.0000 O.3     1  UNL1       -0.3849
      7 O          11.2645   -0.2637    0.0000 O.2     1  UNL1       -0.2453
      8 O           5.2608   -2.0142    0.0000 O.2     1  UNL1       -0.2512
      9 C           6.5178    0.4329    0.0000 C.3     1  UNL1        0.0840
     10 C           7.5178    0.4329    0.0000 C.3     1  UNL1        0.0091
     11 C           7.0178   -1.1060    0.0000 C.3     1  UNL1        0.0253
     12 C           7.8268   -0.5182    0.0000 C.3     1  UNL1        0.0183
     13 C           6.2087   -0.5182    0.0000 C.3     1  UNL1       -0.0239
     14 C           5.5178    0.4329    0.0000 C.3     1  UNL1        0.0167
     15 C           6.9804   -2.0861    0.0000 C.3     1  UNL1        0.0727
     16 C           8.7704   -0.7855    0.0000 C.3     1  UNL1        0.1148
     17 C           7.0109    0.1675    0.0000 C.2     1  UNL1       -0.0799
     18 C           6.7637   -0.5934    0.0000 C.2     1  UNL1       -0.0781
     19 C           5.2087    1.3839    0.0000 C.3     1  UNL1        0.1138
     20 C           6.8268    1.3839    0.0000 C.2     1  UNL1        0.3149
     21 C           8.3658    0.9628    0.0000 C.3     1  UNL1       -0.0547
     22 C           9.1523   -1.6889    0.0000 C.3     1  UNL1        0.0279
     23 C           4.9719   -0.3820    0.0000 C.3     1  UNL1       -0.0057
     24 C           7.7216   -2.7284    0.0000 C.3     1  UNL1       -0.0228
     25 C           4.2882    1.7224    0.0000 C.3     1  UNL1        0.0231
     26 C           8.6863   -2.5520    0.0000 C.3     1  UNL1       -0.0400
     27 C           3.4483    1.2159    0.0000 C.3     1  UNL1        0.0044
     28 C           3.9948   -0.4660    0.0000 C.3     1  UNL1        0.1320
     29 C           5.9811   -2.0466    0.0000 C.3     1  UNL1       -0.0352
     30 C           3.3179    0.2438    0.0000 C.3     1  UNL1        0.1037
     31 C          10.1235   -1.6029    0.0000 C.2     1  UNL1        0.0361
     32 C           4.0649    2.6714    0.0000 C.2     1  UNL1       -0.0696
     33 C           2.7131    1.8563    0.0000 C.3     1  UNL1       -0.0283
     34 C          10.3434   -0.6530    0.0000 C.2     1  UNL1        0.3353
     35 C           3.0935    2.7541    0.0000 C.2     1  UNL1       -0.0843
     36 C           2.3270    0.3781    0.0000 C.3     1  UNL1       -0.0323
     37 C           4.7185    3.4283    0.0000 C.3     1  UNL1       -0.0434
     38 C          10.7797   -2.3575    0.0000 C.2     1  UNL1       -0.0883
     39 C           4.2739   -2.1754    0.0000 C.2     1  UNL1        0.3043
     40 C           3.9200   -3.1107    0.0000 C.3     1  UNL1        0.0332
     41 H           8.4162    0.0942    0.0000 H       1  UNL1        0.0355
     42 H           5.6423   -0.2660    0.0000 H       1  UNL1        0.0285
     43 H           5.8987   -1.0551    0.0000 H       1  UNL1        0.0285
     44 H           5.9180   -0.3170    0.0000 H       1  UNL1        0.0349
     45 H           9.5981   -0.9790    0.0000 H       1  UNL1        0.0743
     46 H           6.5372    0.5675    0.0000 H       1  UNL1        0.0575
     47 H           6.1454   -0.6386    0.0000 H       1  UNL1        0.0576
     48 H           5.0918    2.2258    0.0000 H       1  UNL1        0.0743
     49 H           8.6944    0.4370    0.0000 H       1  UNL1        0.0238
     50 H           8.8916    1.2913    0.0000 H       1  UNL1        0.0238
     51 H           8.0372    1.4886    0.0000 H       1  UNL1        0.0238
     52 H           9.6196   -2.3989    0.0000 H       1  UNL1        0.0387
     53 H           4.8857   -0.9960    0.0000 H       1  UNL1        0.0306
     54 H           5.5511   -0.6033    0.0000 H       1  UNL1        0.0306
     55 H           7.2211   -3.0944    0.0000 H       1  UNL1        0.0293
     56 H           7.9665   -3.2979    0.0000 H       1  UNL1        0.0293
     57 H           4.9246    2.2859    0.0000 H       1  UNL1        0.0385
     58 H           8.6588   -3.1713    0.0000 H       1  UNL1        0.0273
     59 H           9.2839   -2.7172    0.0000 H       1  UNL1        0.0273
     60 H           2.6529    0.9161    0.0000 H       1  UNL1        0.0339
     61 H           3.3871   -0.5891    0.0000 H       1  UNL1        0.0763
     62 H           6.0056   -1.4270    0.0000 H       1  UNL1        0.0257
     63 H           5.3616   -2.0221    0.0000 H       1  UNL1        0.0257
     64 H           5.9566   -2.6661    0.0000 H       1  UNL1        0.0257
     65 H           6.5300   -3.4283    0.0000 H       1  UNL1        0.2102
     66 H           2.1708    2.1569    0.0000 H       1  UNL1        0.0311
     67 H           2.3572    1.3486    0.0000 H       1  UNL1        0.0311
     68 H           2.7733    3.2850    0.0000 H       1  UNL1        0.0572
     69 H           2.4102    0.9924    0.0000 H       1  UNL1        0.0259
     70 H           1.7126    0.4613    0.0000 H       1  UNL1        0.0259
     71 H           2.2437   -0.2363    0.0000 H       1  UNL1        0.0259
     72 H           2.0000   -0.2734    0.0000 H       1  UNL1        0.2103
     73 H           5.1878    3.0231    0.0000 H       1  UNL1        0.0274
     74 H           5.1237    3.8975    0.0000 H       1  UNL1        0.0274
     75 H           4.2493    3.8335    0.0000 H       1  UNL1        0.0274
     76 H          10.5779   -2.9437    0.0000 H       1  UNL1        0.0540
     77 H          11.3882   -2.2391    0.0000 H       1  UNL1        0.0540
     78 H           3.3401   -2.8913    0.0000 H       1  UNL1        0.0342
     79 H           3.7006   -3.6906    0.0000 H       1  UNL1        0.0342
     80 H           4.4999   -3.3301    0.0000 H       1  UNL1        0.0342
@<TRIPOS>BOND
     1     1    19    1
     2     1    20    1
     3     2    16    1
     4     2    34    1
     5    15     3    1
     6     3    65    1
     7     4    20    2
     8    28     5    1
     9     5    39    1
    10    30     6    1
    11     6    72    1
    12     7    34    2
    13     8    39    2
    14     9    10    1
    15     9    13    1
    16     9    14    1
    17     9    20    1
    18    10    12    1
    19    10    17    1
    20    10    21    1
    21    11    12    1
    22    11    13    1
    23    11    15    1
    24    11    18    1
    25    12    16    1
    26    12    41    1
    27    13    42    1
    28    13    43    1
    29    14    19    1
    30    14    23    1
    31    14    44    1
    32    15    24    1
    33    15    29    1
    34    16    22    1
    35    16    45    1
    36    17    18    2
    37    17    46    1
    38    18    47    1
    39    19    25    1
    40    19    48    1
    41    21    49    1
    42    21    50    1
    43    21    51    1
    44    22    26    1
    45    22    31    1
    46    22    52    1
    47    23    28    1
    48    23    53    1
    49    23    54    1
    50    24    26    1
    51    24    55    1
    52    24    56    1
    53    25    27    1
    54    25    32    1
    55    25    57    1
    56    26    58    1
    57    26    59    1
    58    27    30    1
    59    27    33    1
    60    27    60    1
    61    28    30    1
    62    28    61    1
    63    29    62    1
    64    29    63    1
    65    29    64    1
    66    30    36    1
    67    31    34    1
    68    31    38    2
    69    32    35    2
    70    32    37    1
    71    33    35    1
    72    33    66    1
    73    33    67    1
    74    35    68    1
    75    36    69    1
    76    36    70    1
    77    36    71    1
    78    37    73    1
    79    37    74    1
    80    37    75    1
    81    38    76    1
    82    38    77    1
    83    39    40    1
    84    40    78    1
    85    40    79    1
    86    40    80    1
