@<TRIPOS>MOLECULE
IMPHY008805
 47 50 0 0 0
SMALL
GASTEIGER

@<TRIPOS>ATOM
      1 N           5.4354    1.4779    0.0000 N.3     1  UNL1       -0.3015
      2 N           2.6197   -1.1579    0.0000 N.ar    1  UNL1       -0.3577
      3 C           3.6693    2.1207    0.0000 C.3     1  UNL1       -0.0164
      4 C           4.6693    2.1207    0.0000 C.3     1  UNL1        0.0046
      5 C           4.0637    3.0600    0.0000 C.3     1  UNL1       -0.0450
      6 C           2.9033    1.4779    0.0000 C.3     1  UNL1       -0.0409
      7 C           5.0697    3.2206    0.0000 C.3     1  UNL1       -0.0397
      8 C           2.8643    2.7139    0.0000 C.3     1  UNL1       -0.0490
      9 C           5.7370    2.4509    0.0000 C.3     1  UNL1       -0.0011
     10 C           2.7296    0.4931    0.0000 C.3     1  UNL1       -0.0117
     11 C           5.6090    0.4931    0.0000 C.3     1  UNL1        0.0030
     12 C           5.1090   -0.3730    0.0000 C.3     1  UNL1       -0.0126
     13 C           3.2296   -0.3730    0.0000 C.ar    1  UNL1        0.0202
     14 C           4.1693   -0.7150    0.0000 C.ar    1  UNL1       -0.0179
     15 C           2.9756    3.7077    0.0000 C.3     1  UNL1       -0.0647
     16 C           4.1321   -1.7084    0.0000 C.ar    1  UNL1        0.0031
     17 C           3.1762   -1.9815    0.0000 C.ar    1  UNL1        0.0469
     18 C           4.8873   -2.4167    0.0000 C.ar    1  UNL1       -0.0523
     19 C           2.9094   -2.9820    0.0000 C.ar    1  UNL1       -0.0378
     20 C           4.6437   -3.4231    0.0000 C.ar    1  UNL1       -0.0611
     21 C           3.6481   -3.7077    0.0000 C.ar    1  UNL1       -0.0598
     22 H           5.1873    2.4614    0.0000 H       1  UNL1        0.0432
     23 H           4.4915    2.7146    0.0000 H       1  UNL1        0.0432
     24 H           4.0804    3.6797    0.0000 H       1  UNL1        0.0271
     25 H           3.4576    3.1906    0.0000 H       1  UNL1        0.0271
     26 H           2.6577    2.0472    0.0000 H       1  UNL1        0.0275
     27 H           2.2875    1.4059    0.0000 H       1  UNL1        0.0275
     28 H           5.6050    3.5335    0.0000 H       1  UNL1        0.0278
     29 H           4.8608    3.8044    0.0000 H       1  UNL1        0.0278
     30 H           2.2695    2.8888    0.0000 H       1  UNL1        0.0268
     31 H           2.5888    2.1585    0.0000 H       1  UNL1        0.0268
     32 H           6.2853    2.1614    0.0000 H       1  UNL1        0.0426
     33 H           6.1226    2.9364    0.0000 H       1  UNL1        0.0426
     34 H           2.1756    0.7713    0.0000 H       1  UNL1        0.0328
     35 H           2.3042    0.0421    0.0000 H       1  UNL1        0.0328
     36 H           6.0345    0.0421    0.0000 H       1  UNL1        0.0430
     37 H           6.1631    0.7713    0.0000 H       1  UNL1        0.0430
     38 H           5.1451   -0.9919    0.0000 H       1  UNL1        0.0326
     39 H           5.7123   -0.5159    0.0000 H       1  UNL1        0.0326
     40 H           3.5917    3.6387    0.0000 H       1  UNL1        0.0230
     41 H           3.0445    4.3238    0.0000 H       1  UNL1        0.0230
     42 H           2.3594    3.7767    0.0000 H       1  UNL1        0.0230
     43 H           2.0000   -1.1373    0.0000 H       1  UNL1        0.1656
     44 H           5.4814   -2.2395    0.0000 H       1  UNL1        0.0624
     45 H           2.3114   -3.1455    0.0000 H       1  UNL1        0.0638
     46 H           5.0910   -3.8525    0.0000 H       1  UNL1        0.0618
     47 H           3.4952   -4.3086    0.0000 H       1  UNL1        0.0618
@<TRIPOS>BOND
     1     1     4    1
     2     1     9    1
     3     1    11    1
     4     2    13   ar
     5     2    17   ar
     6     2    43    1
     7     3     4    1
     8     3     5    1
     9     3     6    1
    10     3     8    1
    11     4    22    1
    12     4    23    1
    13     5     7    1
    14     5    24    1
    15     5    25    1
    16     6    10    1
    17     6    26    1
    18     6    27    1
    19     7     9    1
    20     7    28    1
    21     7    29    1
    22     8    15    1
    23     8    30    1
    24     8    31    1
    25     9    32    1
    26     9    33    1
    27    10    13    1
    28    10    34    1
    29    10    35    1
    30    11    12    1
    31    11    36    1
    32    11    37    1
    33    12    14    1
    34    12    38    1
    35    12    39    1
    36    13    14   ar
    37    14    16   ar
    38    15    40    1
    39    15    41    1
    40    15    42    1
    41    16    17   ar
    42    16    18   ar
    43    17    19   ar
    44    18    20   ar
    45    18    44    1
    46    19    21   ar
    47    19    45    1
    48    20    21   ar
    49    20    46    1
    50    21    47    1
