@<TRIPOS>MOLECULE
IMPHY015639
 51 50 0 0 0
SMALL
GASTEIGER

@<TRIPOS>ATOM
      1 O          14.1244   -0.2500    0.0000 O.3     1  UNL1       -0.4648
      2 O          14.9904    1.2500    0.0000 O.2     1  UNL1       -0.2512
      3 C           8.9282   -0.2500    0.0000 C.3     1  UNL1       -0.0525
      4 C           8.0622    0.2500    0.0000 C.3     1  UNL1       -0.0470
      5 C           9.7942    0.2500    0.0000 C.3     1  UNL1       -0.0530
      6 C           7.1962   -0.2500    0.0000 C.3     1  UNL1       -0.0257
      7 C          10.6603   -0.2500    0.0000 C.3     1  UNL1       -0.0530
      8 C          11.5263    0.2500    0.0000 C.3     1  UNL1       -0.0500
      9 C          12.3923   -0.2500    0.0000 C.3     1  UNL1       -0.0185
     10 C           6.3301    0.2500    0.0000 C.2     1  UNL1       -0.0851
     11 C           7.1962   -1.2500    0.0000 C.3     1  UNL1       -0.0590
     12 C           5.4641   -0.2500    0.0000 C.2     1  UNL1       -0.0877
     13 C           4.5981    0.2500    0.0000 C.3     1  UNL1       -0.0348
     14 C          13.2583    0.2500    0.0000 C.3     1  UNL1        0.0924
     15 C           3.7320   -0.2500    0.0000 C.3     1  UNL1       -0.0499
     16 C           2.8660    0.2500    0.0000 C.3     1  UNL1       -0.0556
     17 C           2.0000   -0.2500    0.0000 C.3     1  UNL1       -0.0653
     18 C          14.9904    0.2500    0.0000 C.2     1  UNL1        0.3039
     19 C          15.8564   -0.2500    0.0000 C.3     1  UNL1        0.0332
     20 H           8.5297   -0.7249    0.0000 H       1  UNL1        0.0265
     21 H           9.3267   -0.7249    0.0000 H       1  UNL1        0.0265
     22 H           8.4607    0.7249    0.0000 H       1  UNL1        0.0271
     23 H           7.6636    0.7249    0.0000 H       1  UNL1        0.0271
     24 H          10.1928    0.7249    0.0000 H       1  UNL1        0.0265
     25 H           9.3957    0.7249    0.0000 H       1  UNL1        0.0265
     26 H           6.6592   -0.5600    0.0000 H       1  UNL1        0.0340
     27 H          10.2617   -0.7249    0.0000 H       1  UNL1        0.0265
     28 H          11.0588   -0.7249    0.0000 H       1  UNL1        0.0265
     29 H          11.9248    0.7249    0.0000 H       1  UNL1        0.0266
     30 H          11.1278    0.7249    0.0000 H       1  UNL1        0.0266
     31 H          11.9938   -0.7249    0.0000 H       1  UNL1        0.0298
     32 H          12.7908   -0.7249    0.0000 H       1  UNL1        0.0298
     33 H           6.3301    0.8700    0.0000 H       1  UNL1        0.0572
     34 H           6.5762   -1.2500    0.0000 H       1  UNL1        0.0235
     35 H           7.1962   -1.8700    0.0000 H       1  UNL1        0.0235
     36 H           7.8162   -1.2500    0.0000 H       1  UNL1        0.0235
     37 H           5.4641   -0.8700    0.0000 H       1  UNL1        0.0569
     38 H           4.9966    0.7249    0.0000 H       1  UNL1        0.0307
     39 H           4.1996    0.7249    0.0000 H       1  UNL1        0.0307
     40 H          13.6569    0.7249    0.0000 H       1  UNL1        0.0697
     41 H          12.8598    0.7249    0.0000 H       1  UNL1        0.0697
     42 H           3.3335   -0.7249    0.0000 H       1  UNL1        0.0268
     43 H           4.1306   -0.7249    0.0000 H       1  UNL1        0.0268
     44 H           3.2646    0.7249    0.0000 H       1  UNL1        0.0263
     45 H           2.4675    0.7249    0.0000 H       1  UNL1        0.0263
     46 H           1.6900    0.2869    0.0000 H       1  UNL1        0.0230
     47 H           1.4631   -0.5600    0.0000 H       1  UNL1        0.0230
     48 H           2.3100   -0.7869    0.0000 H       1  UNL1        0.0230
     49 H          15.5464   -0.7869    0.0000 H       1  UNL1        0.0342
     50 H          16.3933   -0.5600    0.0000 H       1  UNL1        0.0342
     51 H          16.1664    0.2869    0.0000 H       1  UNL1        0.0342
@<TRIPOS>BOND
     1     1    14    1
     2     1    18    1
     3     2    18    2
     4     3     4    1
     5     3     5    1
     6     3    20    1
     7     3    21    1
     8     4     6    1
     9     4    22    1
    10     4    23    1
    11     5     7    1
    12     5    24    1
    13     5    25    1
    14     6    10    1
    15     6    11    1
    16     6    26    1
    17     7     8    1
    18     7    27    1
    19     7    28    1
    20     8     9    1
    21     8    29    1
    22     8    30    1
    23     9    14    1
    24     9    31    1
    25     9    32    1
    26    10    12    2
    27    10    33    1
    28    11    34    1
    29    11    35    1
    30    11    36    1
    31    12    13    1
    32    12    37    1
    33    13    15    1
    34    13    38    1
    35    13    39    1
    36    14    40    1
    37    14    41    1
    38    15    16    1
    39    15    42    1
    40    15    43    1
    41    16    17    1
    42    16    44    1
    43    16    45    1
    44    17    46    1
    45    17    47    1
    46    17    48    1
    47    18    19    1
    48    19    49    1
    49    19    50    1
    50    19    51    1
