@<TRIPOS>MOLECULE
IMPHY002505
 62 64 0 0 0
SMALL
GASTEIGER

@<TRIPOS>ATOM
      1 O           9.5453    1.4453    0.0000 O.3     1  UNL1       -0.4566
      2 O           6.8671   -1.2500    0.0000 O.3     1  UNL1       -0.3408
      3 O           5.1350   -1.2500    0.0000 O.3     1  UNL1       -0.3405
      4 O           7.7331    4.2500    0.0000 O.3     1  UNL1       -0.3910
      5 O           6.8671   -3.2500    0.0000 O.3     1  UNL1       -0.3841
      6 O           5.1350   -4.2500    0.0000 O.3     1  UNL1       -0.3864
      7 O           3.4030   -3.2500    0.0000 O.3     1  UNL1       -0.3865
      8 O          11.1289    2.2500    0.0000 O.2     1  UNL1       -0.2505
      9 O           2.5369   -1.7500    0.0000 O.3     1  UNL1       -0.3924
     10 C           8.5991    2.7500    0.0000 C.3     1  UNL1        0.0387
     11 C           8.5991    1.7500    0.0000 C.3     1  UNL1        0.1275
     12 C           9.5453    3.0547    0.0000 C.3     1  UNL1        0.0625
     13 C           7.7331    3.2500    0.0000 C.3     1  UNL1        0.0661
     14 C           6.8671    2.7500    0.0000 C.3     1  UNL1       -0.0055
     15 C           7.7331    1.2500    0.0000 C.2     1  UNL1       -0.0422
     16 C          10.1289    2.2500    0.0000 C.2     1  UNL1        0.3110
     17 C           6.8671   -0.2500    0.0000 C.3     1  UNL1        0.0861
     18 C           6.0010   -1.7500    0.0000 C.3     1  UNL1        0.1886
     19 C           6.0010   -2.7500    0.0000 C.3     1  UNL1        0.1341
     20 C           5.1350   -3.2500    0.0000 C.3     1  UNL1        0.1141
     21 C           4.2690   -2.7500    0.0000 C.3     1  UNL1        0.1119
     22 C           7.7331    0.2500    0.0000 C.2     1  UNL1       -0.0444
     23 C           4.2690   -1.7500    0.0000 C.3     1  UNL1        0.1130
     24 C           9.8560    4.0052    0.0000 C.3     1  UNL1       -0.0518
     25 C           6.0010    0.2500    0.0000 C.3     1  UNL1       -0.0042
     26 C           6.8671    1.7500    0.0000 C.2     1  UNL1       -0.0740
     27 C           6.0010    1.2500    0.0000 C.2     1  UNL1       -0.0822
     28 C           3.4030   -1.2500    0.0000 C.3     1  UNL1        0.0730
     29 C           8.5991   -0.2500    0.0000 C.3     1  UNL1       -0.0412
     30 C           8.0544    0.7537    0.0000 C.3     1  UNL1       -0.0437
     31 H           8.6891    3.5952    0.0000 H       1  UNL1        0.0373
     32 H           8.6891    0.9048    0.0000 H       1  UNL1        0.0783
     33 H          10.1578    3.1509    0.0000 H       1  UNL1        0.0415
     34 H           7.1962    3.5600    0.0000 H       1  UNL1        0.0601
     35 H           6.6550    3.3326    0.0000 H       1  UNL1        0.0335
     36 H           6.2565    2.6423    0.0000 H       1  UNL1        0.0335
     37 H           7.5210    1.8326    0.0000 H       1  UNL1        0.0609
     38 H           7.4040   -0.5600    0.0000 H       1  UNL1        0.0647
     39 H           6.0010   -1.1300    0.0000 H       1  UNL1        0.0938
     40 H           6.0010   -3.3700    0.0000 H       1  UNL1        0.0671
     41 H           4.5981   -3.5600    0.0000 H       1  UNL1        0.0648
     42 H           3.7320   -2.4400    0.0000 H       1  UNL1        0.0647
     43 H           4.2690   -1.1300    0.0000 H       1  UNL1        0.0647
     44 H          10.4453    3.8126    0.0000 H       1  UNL1        0.0238
     45 H          10.0486    4.5946    0.0000 H       1  UNL1        0.0238
     46 H           9.2667    4.1979    0.0000 H       1  UNL1        0.0238
     47 H           5.3905    0.3577    0.0000 H       1  UNL1        0.0336
     48 H           5.7890   -0.3326    0.0000 H       1  UNL1        0.0336
     49 H           5.4641    1.5600    0.0000 H       1  UNL1        0.0572
     50 H           7.1962    4.5600    0.0000 H       1  UNL1        0.2098
     51 H           3.8015   -0.7751    0.0000 H       1  UNL1        0.0584
     52 H           3.0044   -0.7751    0.0000 H       1  UNL1        0.0584
     53 H           8.2891   -0.7869    0.0000 H       1  UNL1        0.0275
     54 H           9.1360   -0.5600    0.0000 H       1  UNL1        0.0275
     55 H           8.9091    0.2869    0.0000 H       1  UNL1        0.0275
     56 H           7.6559    0.2787    0.0000 H       1  UNL1        0.0274
     57 H           8.5294    0.3552    0.0000 H       1  UNL1        0.0274
     58 H           8.4530    1.2286    0.0000 H       1  UNL1        0.0274
     59 H           6.8671   -3.8700    0.0000 H       1  UNL1        0.2101
     60 H           4.5981   -4.5600    0.0000 H       1  UNL1        0.2100
     61 H           3.4030   -3.8700    0.0000 H       1  UNL1        0.2100
     62 H           2.0000   -1.4400    0.0000 H       1  UNL1        0.2095
@<TRIPOS>BOND
     1     1    11    1
     2     1    16    1
     3    17     2    1
     4    18     2    1
     5     3    18    1
     6     3    23    1
     7    13     4    1
     8     4    50    1
     9    19     5    1
    10     5    59    1
    11    20     6    1
    12     6    60    1
    13    21     7    1
    14     7    61    1
    15     8    16    2
    16     9    28    1
    17     9    62    1
    18    10    11    1
    19    10    12    1
    20    10    13    1
    21    10    31    1
    22    11    15    1
    23    11    32    1
    24    12    16    1
    25    12    24    1
    26    12    33    1
    27    13    14    1
    28    13    34    1
    29    14    26    1
    30    14    35    1
    31    14    36    1
    32    15    22    2
    33    15    37    1
    34    17    22    1
    35    17    25    1
    36    17    38    1
    37    18    19    1
    38    18    39    1
    39    19    20    1
    40    19    40    1
    41    20    21    1
    42    20    41    1
    43    21    23    1
    44    21    42    1
    45    22    29    1
    46    23    28    1
    47    23    43    1
    48    24    44    1
    49    24    45    1
    50    24    46    1
    51    25    27    1
    52    25    47    1
    53    25    48    1
    54    26    27    2
    55    26    30    1
    56    27    49    1
    57    28    51    1
    58    28    52    1
    59    29    53    1
    60    29    54    1
    61    29    55    1
    62    30    56    1
    63    30    57    1
    64    30    58    1
