@<TRIPOS>MOLECULE
IMPHY017690
 23 23 0 0 0
SMALL
GASTEIGER

@<TRIPOS>ATOM
      1 O           2.8660    2.2500    0.0000 O.2     1  UNL1       -0.2923
      2 C           2.8660    0.2500    0.0000 C.ar    1  UNL1       -0.0397
      3 C           3.7320    0.7500    0.0000 C.ar    1  UNL1        0.0200
      4 C           3.7320   -1.2500    0.0000 C.ar    1  UNL1       -0.0502
      5 C           2.8660   -0.7500    0.0000 C.ar    1  UNL1       -0.0553
      6 C           4.5981    0.2500    0.0000 C.ar    1  UNL1       -0.0508
      7 C           4.5981   -0.7500    0.0000 C.ar    1  UNL1       -0.0582
      8 C           2.0000    0.7500    0.0000 C.3     1  UNL1       -0.0390
      9 C           3.7320    1.7500    0.0000 C.2     1  UNL1        0.1604
     10 C           3.7320   -2.2500    0.0000 C.3     1  UNL1       -0.0397
     11 C           4.5981    2.2500    0.0000 C.3     1  UNL1       -0.0014
     12 H           2.3291   -1.0600    0.0000 H       1  UNL1        0.0623
     13 H           5.1350    0.5600    0.0000 H       1  UNL1        0.0625
     14 H           5.1350   -1.0600    0.0000 H       1  UNL1        0.0620
     15 H           2.3100    1.2869    0.0000 H       1  UNL1        0.0278
     16 H           1.4631    1.0600    0.0000 H       1  UNL1        0.0278
     17 H           1.6900    0.2131    0.0000 H       1  UNL1        0.0278
     18 H           3.1120   -2.2500    0.0000 H       1  UNL1        0.0278
     19 H           3.7320   -2.8700    0.0000 H       1  UNL1        0.0278
     20 H           4.3520   -2.2500    0.0000 H       1  UNL1        0.0278
     21 H           4.9081    1.7131    0.0000 H       1  UNL1        0.0309
     22 H           5.1350    2.5600    0.0000 H       1  UNL1        0.0309
     23 H           4.2881    2.7869    0.0000 H       1  UNL1        0.0309
@<TRIPOS>BOND
     1     1     9    2
     2     2     3   ar
     3     2     5   ar
     4     2     8    1
     5     3     6   ar
     6     3     9    1
     7     4     5   ar
     8     4     7   ar
     9     4    10    1
    10     5    12    1
    11     6     7   ar
    12     6    13    1
    13     7    14    1
    14     8    15    1
    15     8    16    1
    16     8    17    1
    17     9    11    1
    18    10    18    1
    19    10    19    1
    20    10    20    1
    21    11    21    1
    22    11    22    1
    23    11    23    1
