@<TRIPOS>MOLECULE
IMPHY013047
 29 31 0 0 0
SMALL
GASTEIGER

@<TRIPOS>ATOM
      1 O           2.6720    0.4130    0.0000 O.3     1  UNL1       -0.4950
      2 O           7.0417   -1.9455    0.0000 O.2     1  UNL1       -0.2869
      3 O           8.2991    1.9245    0.0000 O.2     1  UNL1       -0.2857
      4 N           6.1767    1.3255    0.0000 N.ar    1  UNL1       -0.3510
      5 C           6.6767   -0.2133    0.0000 C.ar    1  UNL1        0.0580
      6 C           5.6767   -0.2133    0.0000 C.ar    1  UNL1        0.0114
      7 C           6.9857    0.7377    0.0000 C.ar    1  UNL1        0.0985
      8 C           5.3677    0.7377    0.0000 C.ar    1  UNL1        0.0512
      9 C           7.3617   -0.9981    0.0000 C.2     1  UNL1        0.1918
     10 C           8.0011    0.9700    0.0000 C.2     1  UNL1        0.2032
     11 C           4.9917   -0.9981    0.0000 C.ar    1  UNL1       -0.0484
     12 C           8.3822   -0.7894    0.0000 C.2     1  UNL1        0.0006
     13 C           4.3523    0.9700    0.0000 C.ar    1  UNL1        0.0040
     14 C           8.7040    0.2013    0.0000 C.2     1  UNL1       -0.0063
     15 C           3.6493    0.2013    0.0000 C.ar    1  UNL1        0.1221
     16 C           3.9712   -0.7894    0.0000 C.ar    1  UNL1       -0.0192
     17 C           9.0484   -1.5351    0.0000 C.3     1  UNL1       -0.0359
     18 C           2.0000   -0.3276    0.0000 C.3     1  UNL1        0.0788
     19 H           6.1767    1.9455    0.0000 H       1  UNL1        0.1660
     20 H           5.1901   -1.5855    0.0000 H       1  UNL1        0.0625
     21 H           4.1675    1.5618    0.0000 H       1  UNL1        0.0675
     22 H           9.3100    0.3325    0.0000 H       1  UNL1        0.0660
     23 H           3.5581   -1.2517    0.0000 H       1  UNL1        0.0654
     24 H           8.5861   -1.9482    0.0000 H       1  UNL1        0.0279
     25 H           9.4615   -1.9974    0.0000 H       1  UNL1        0.0279
     26 H           9.5108   -1.1220    0.0000 H       1  UNL1        0.0279
     27 H           1.5408    0.0890    0.0000 H       1  UNL1        0.0660
     28 H           1.5834   -0.7867    0.0000 H       1  UNL1        0.0660
     29 H           2.4592   -0.7442    0.0000 H       1  UNL1        0.0660
@<TRIPOS>BOND
     1     1    15    1
     2     1    18    1
     3     2     9    2
     4     3    10    2
     5     4     7   ar
     6     4     8   ar
     7     4    19    1
     8     5     6   ar
     9     5     7   ar
    10     5     9    1
    11     6     8   ar
    12     6    11   ar
    13     7    10    1
    14     8    13   ar
    15     9    12    1
    16    10    14    1
    17    11    16   ar
    18    11    20    1
    19    12    14    2
    20    12    17    1
    21    13    15   ar
    22    13    21    1
    23    14    22    1
    24    15    16   ar
    25    16    23    1
    26    17    24    1
    27    17    25    1
    28    17    26    1
    29    18    27    1
    30    18    28    1
    31    18    29    1
