@<TRIPOS>MOLECULE
IMPHY001992
 31 31 0 0 0
SMALL
GASTEIGER

@<TRIPOS>ATOM
      1 O           4.5981    2.2500    0.0000 O.3     1  UNL1       -0.4525
      2 O           3.7320   -2.2500    0.0000 O.3     1  UNL1       -0.4260
      3 O           3.7320    3.7500    0.0000 O.2     1  UNL1       -0.2511
      4 O           2.0000   -2.2500    0.0000 O.2     1  UNL1       -0.2507
      5 C           3.7320    1.7500    0.0000 C.3     1  UNL1        0.1460
      6 C           3.7320    0.7500    0.0000 C.ar    1  UNL1       -0.0031
      7 C           4.5981    0.2500    0.0000 C.ar    1  UNL1       -0.0513
      8 C           2.8660    0.2500    0.0000 C.ar    1  UNL1       -0.0513
      9 C           3.7320   -1.2500    0.0000 C.ar    1  UNL1        0.1316
     10 C           4.5981   -0.7500    0.0000 C.ar    1  UNL1       -0.0188
     11 C           2.8660   -0.7500    0.0000 C.ar    1  UNL1       -0.0188
     12 C           2.8660    2.2500    0.0000 C.2     1  UNL1       -0.0466
     13 C           4.5981    3.2500    0.0000 C.2     1  UNL1        0.3048
     14 C           2.8660    3.2500    0.0000 C.2     1  UNL1       -0.0989
     15 C           5.4641    3.7500    0.0000 C.3     1  UNL1        0.0333
     16 C           2.8660   -2.7500    0.0000 C.2     1  UNL1        0.3092
     17 C           2.8660   -3.7500    0.0000 C.3     1  UNL1        0.0336
     18 H           3.7320    2.3700    0.0000 H       1  UNL1        0.0831
     19 H           5.1350    0.5600    0.0000 H       1  UNL1        0.0623
     20 H           2.3291    0.5600    0.0000 H       1  UNL1        0.0623
     21 H           5.1350   -1.0600    0.0000 H       1  UNL1        0.0654
     22 H           2.3291   -1.0600    0.0000 H       1  UNL1        0.0654
     23 H           2.3291    1.9400    0.0000 H       1  UNL1        0.0606
     24 H           3.4030    3.5600    0.0000 H       1  UNL1        0.0533
     25 H           2.3291    3.5600    0.0000 H       1  UNL1        0.0533
     26 H           5.7741    3.2131    0.0000 H       1  UNL1        0.0342
     27 H           6.0010    4.0600    0.0000 H       1  UNL1        0.0342
     28 H           5.1541    4.2869    0.0000 H       1  UNL1        0.0342
     29 H           2.2460   -3.7500    0.0000 H       1  UNL1        0.0342
     30 H           2.8660   -4.3700    0.0000 H       1  UNL1        0.0342
     31 H           3.4860   -3.7500    0.0000 H       1  UNL1        0.0342
@<TRIPOS>BOND
     1     5     1    1
     2     1    13    1
     3     2     9    1
     4     2    16    1
     5     3    13    2
     6     4    16    2
     7     5     6    1
     8     5    12    1
     9     5    18    1
    10     6     7   ar
    11     6     8   ar
    12     7    10   ar
    13     7    19    1
    14     8    11   ar
    15     8    20    1
    16     9    10   ar
    17     9    11   ar
    18    10    21    1
    19    11    22    1
    20    12    14    2
    21    12    23    1
    22    13    15    1
    23    14    24    1
    24    14    25    1
    25    15    26    1
    26    15    27    1
    27    15    28    1
    28    16    17    1
    29    17    29    1
    30    17    30    1
    31    17    31    1
