@<TRIPOS>MOLECULE
IMPHY009955
 18 18 0 0 0
SMALL
GASTEIGER

@<TRIPOS>ATOM
      1 C           2.8660    1.0000    0.0000 C.3     1  UNL1       -0.0531
      2 C           2.0000    0.5000    0.0000 C.3     1  UNL1       -0.0531
      3 C           3.7320    0.5000    0.0000 C.3     1  UNL1       -0.0531
      4 C           3.7320   -0.5000    0.0000 C.3     1  UNL1       -0.0531
      5 C           2.0000   -0.5000    0.0000 C.3     1  UNL1       -0.0531
      6 C           2.8660   -1.0000    0.0000 C.3     1  UNL1       -0.0531
      7 H           2.4675   -1.4750    0.0000 H       1  UNL1        0.0265
      8 H           3.2646   -1.4750    0.0000 H       1  UNL1        0.0265
      9 H           1.3894   -0.3923    0.0000 H       1  UNL1        0.0265
     10 H           1.7880   -1.0826    0.0000 H       1  UNL1        0.0265
     11 H           3.9441   -1.0826    0.0000 H       1  UNL1        0.0265
     12 H           4.3426   -0.3923    0.0000 H       1  UNL1        0.0265
     13 H           4.3426    0.3923    0.0000 H       1  UNL1        0.0265
     14 H           3.9441    1.0826    0.0000 H       1  UNL1        0.0265
     15 H           1.7880    1.0826    0.0000 H       1  UNL1        0.0265
     16 H           1.3894    0.3923    0.0000 H       1  UNL1        0.0265
     17 H           3.2646    1.4750    0.0000 H       1  UNL1        0.0265
     18 H           2.4675    1.4750    0.0000 H       1  UNL1        0.0265
@<TRIPOS>BOND
     1     1     2    1
     2     1     3    1
     3     1    17    1
     4     1    18    1
     5     2     5    1
     6     2    15    1
     7     2    16    1
     8     3     4    1
     9     3    13    1
    10     3    14    1
    11     4     6    1
    12     4    11    1
    13     4    12    1
    14     5     6    1
    15     5     9    1
    16     5    10    1
    17     6     7    1
    18     6     8    1
