@<TRIPOS>MOLECULE
IMPHY002232
 47 47 0 0 0
SMALL
GASTEIGER

@<TRIPOS>ATOM
      1 O           2.8660    2.0600    0.0000 O.3     1  UNL1       -0.4645
      2 O           4.5981   -1.9400    0.0000 O.2     1  UNL1       -0.2968
      3 O           7.1962    0.5600    0.0000 O.2     1  UNL1       -0.2971
      4 O           3.7320    3.5600    0.0000 O.2     1  UNL1       -0.2512
      5 C           4.5981    0.0600    0.0000 C.3     1  UNL1        0.0301
      6 C           3.7320    0.5600    0.0000 C.3     1  UNL1        0.0004
      7 C           5.4641    0.5600    0.0000 C.3     1  UNL1        0.0160
      8 C           6.3301   -0.9400    0.0000 C.3     1  UNL1        0.0150
      9 C           4.5981   -0.9400    0.0000 C.2     1  UNL1        0.1411
     10 C           6.3301    0.0600    0.0000 C.2     1  UNL1        0.1368
     11 C           5.4641   -1.4400    0.0000 C.3     1  UNL1       -0.0403
     12 C           3.7320    1.5600    0.0000 C.3     1  UNL1        0.0956
     13 C           3.7320   -1.4400    0.0000 C.3     1  UNL1        0.0270
     14 C           2.8660    0.0600    0.0000 C.3     1  UNL1       -0.0587
     15 C           5.4641   -2.4400    0.0000 C.3     1  UNL1       -0.0339
     16 C           3.7320   -2.4400    0.0000 C.2     1  UNL1       -0.0694
     17 C           7.1962   -1.4400    0.0000 C.3     1  UNL1       -0.0557
     18 C           4.5981   -2.9400    0.0000 C.2     1  UNL1       -0.0846
     19 C           2.8660   -2.9400    0.0000 C.3     1  UNL1       -0.0434
     20 C           2.8660    3.0600    0.0000 C.2     1  UNL1        0.3040
     21 C           2.0000    3.5600    0.0000 C.3     1  UNL1        0.0332
     22 H           4.5981    0.6800    0.0000 H       1  UNL1        0.0385
     23 H           3.7320   -0.0600    0.0000 H       1  UNL1        0.0338
     24 H           5.8626    1.0350    0.0000 H       1  UNL1        0.0349
     25 H           5.0656    1.0350    0.0000 H       1  UNL1        0.0349
     26 H           6.8671   -0.6300    0.0000 H       1  UNL1        0.0375
     27 H           5.2520   -0.8574    0.0000 H       1  UNL1        0.0275
     28 H           4.8535   -1.5477    0.0000 H       1  UNL1        0.0275
     29 H           4.3426    1.4523    0.0000 H       1  UNL1        0.0700
     30 H           3.9441    2.1426    0.0000 H       1  UNL1        0.0700
     31 H           3.5200   -0.8574    0.0000 H       1  UNL1        0.0387
     32 H           3.1215   -1.5477    0.0000 H       1  UNL1        0.0387
     33 H           2.5560    0.5969    0.0000 H       1  UNL1        0.0234
     34 H           2.3291   -0.2500    0.0000 H       1  UNL1        0.0234
     35 H           3.1760   -0.4769    0.0000 H       1  UNL1        0.0234
     36 H           5.6762   -3.0226    0.0000 H       1  UNL1        0.0308
     37 H           6.0747   -2.3323    0.0000 H       1  UNL1        0.0308
     38 H           6.8862   -1.9769    0.0000 H       1  UNL1        0.0236
     39 H           7.7331   -1.7500    0.0000 H       1  UNL1        0.0236
     40 H           7.5062   -0.9031    0.0000 H       1  UNL1        0.0236
     41 H           4.5981   -3.5600    0.0000 H       1  UNL1        0.0572
     42 H           2.5560   -2.4031    0.0000 H       1  UNL1        0.0274
     43 H           2.3291   -3.2500    0.0000 H       1  UNL1        0.0274
     44 H           3.1760   -3.4769    0.0000 H       1  UNL1        0.0274
     45 H           2.3100    4.0969    0.0000 H       1  UNL1        0.0342
     46 H           1.4631    3.8700    0.0000 H       1  UNL1        0.0342
     47 H           1.6900    3.0231    0.0000 H       1  UNL1        0.0342
@<TRIPOS>BOND
     1     1    12    1
     2     1    20    1
     3     2     9    2
     4     3    10    2
     5     4    20    2
     6     5     6    1
     7     5     7    1
     8     5     9    1
     9     5    22    1
    10     6    12    1
    11     6    14    1
    12     6    23    1
    13     7    10    1
    14     7    24    1
    15     7    25    1
    16     8    10    1
    17     8    11    1
    18     8    17    1
    19     8    26    1
    20     9    13    1
    21    11    15    1
    22    11    27    1
    23    11    28    1
    24    12    29    1
    25    12    30    1
    26    13    16    1
    27    13    31    1
    28    13    32    1
    29    14    33    1
    30    14    34    1
    31    14    35    1
    32    15    18    1
    33    15    36    1
    34    15    37    1
    35    16    18    2
    36    16    19    1
    37    17    38    1
    38    17    39    1
    39    17    40    1
    40    18    41    1
    41    19    42    1
    42    19    43    1
    43    19    44    1
    44    20    21    1
    45    21    45    1
    46    21    46    1
    47    21    47    1
