@<TRIPOS>MOLECULE
IMPHY008611
 44 45 0 0 0
SMALL
GASTEIGER

@<TRIPOS>ATOM
      1 S           6.0010    4.1550    0.0000 S.2     1  UNL1        0.0058
      2 O           4.2690   -1.8450    0.0000 O.3     1  UNL1       -0.3339
      3 O           6.0010   -1.8450    0.0000 O.3     1  UNL1       -0.4608
      4 O           4.2690   -4.8450    0.0000 O.3     1  UNL1       -0.3864
      5 O           2.5369   -3.8450    0.0000 O.3     1  UNL1       -0.3866
      6 O           6.0010   -3.8450    0.0000 O.3     1  UNL1       -0.3829
      7 O           7.7331    4.1550    0.0000 O.3     1  UNL1       -0.4774
      8 N           6.8671    2.6550    0.0000 N.am    1  UNL1       -0.3052
      9 C           4.2690   -3.8450    0.0000 C.3     1  UNL1        0.1151
     10 C           3.4030   -3.3450    0.0000 C.3     1  UNL1        0.1096
     11 C           5.1350   -3.3450    0.0000 C.3     1  UNL1        0.1454
     12 C           3.4030   -2.3450    0.0000 C.3     1  UNL1        0.0883
     13 C           5.1350   -2.3450    0.0000 C.3     1  UNL1        0.2307
     14 C           2.5369   -1.8450    0.0000 C.3     1  UNL1       -0.0360
     15 C           6.0010   -0.8450    0.0000 C.ar    1  UNL1        0.1240
     16 C           6.8671   -0.3450    0.0000 C.ar    1  UNL1       -0.0195
     17 C           5.1350   -0.3450    0.0000 C.ar    1  UNL1       -0.0195
     18 C           6.0010    1.1550    0.0000 C.ar    1  UNL1       -0.0301
     19 C           6.8671    0.6550    0.0000 C.ar    1  UNL1       -0.0536
     20 C           5.1350    0.6550    0.0000 C.ar    1  UNL1       -0.0536
     21 C           6.0010    2.1550    0.0000 C.3     1  UNL1        0.0375
     22 C           6.8671    3.6550    0.0000 C.2     1  UNL1        0.2281
     23 C           7.7331    5.1550    0.0000 C.3     1  UNL1        0.0807
     24 H           4.8059   -4.1550    0.0000 H       1  UNL1        0.0648
     25 H           3.4030   -3.9650    0.0000 H       1  UNL1        0.0646
     26 H           5.6720   -3.0350    0.0000 H       1  UNL1        0.0683
     27 H           3.4030   -1.7250    0.0000 H       1  UNL1        0.0621
     28 H           5.1350   -1.7250    0.0000 H       1  UNL1        0.1084
     29 H           2.8469   -1.3081    0.0000 H       1  UNL1        0.0255
     30 H           2.0000   -1.5350    0.0000 H       1  UNL1        0.0255
     31 H           2.2269   -2.3819    0.0000 H       1  UNL1        0.0255
     32 H           3.7320   -5.1550    0.0000 H       1  UNL1        0.2100
     33 H           2.0000   -3.5350    0.0000 H       1  UNL1        0.2100
     34 H           6.0010   -4.4650    0.0000 H       1  UNL1        0.2102
     35 H           7.4040   -0.6550    0.0000 H       1  UNL1        0.0654
     36 H           4.5981   -0.6550    0.0000 H       1  UNL1        0.0654
     37 H           7.4040    0.9650    0.0000 H       1  UNL1        0.0622
     38 H           4.5981    0.9650    0.0000 H       1  UNL1        0.0622
     39 H           5.7890    2.7376    0.0000 H       1  UNL1        0.0512
     40 H           5.3905    2.0473    0.0000 H       1  UNL1        0.0512
     41 H           7.4040    2.3450    0.0000 H       1  UNL1        0.1497
     42 H           8.3531    5.1550    0.0000 H       1  UNL1        0.0661
     43 H           7.7331    5.7750    0.0000 H       1  UNL1        0.0661
     44 H           7.1131    5.1550    0.0000 H       1  UNL1        0.0661
@<TRIPOS>BOND
     1     1    22    2
     2     2    12    1
     3     2    13    1
     4    13     3    1
     5     3    15    1
     6     9     4    1
     7     4    32    1
     8    10     5    1
     9     5    33    1
    10    11     6    1
    11     6    34    1
    12     7    22    1
    13     7    23    1
    14     8    21    1
    15     8    22    1
    16     8    41    1
    17     9    10    1
    18     9    11    1
    19     9    24    1
    20    10    12    1
    21    10    25    1
    22    11    13    1
    23    11    26    1
    24    12    14    1
    25    12    27    1
    26    13    28    1
    27    14    29    1
    28    14    30    1
    29    14    31    1
    30    15    16   ar
    31    15    17   ar
    32    16    19   ar
    33    16    35    1
    34    17    20   ar
    35    17    36    1
    36    18    19   ar
    37    18    20   ar
    38    18    21    1
    39    19    37    1
    40    20    38    1
    41    21    39    1
    42    21    40    1
    43    23    42    1
    44    23    43    1
    45    23    44    1
