@<TRIPOS>MOLECULE
IMPHY005486
 39 38 0 0 0
SMALL
GASTEIGER

@<TRIPOS>ATOM
      1 SG          3.4030   -0.4050    0.0000 S.3     1  UNL1       -0.1584
      2 O           6.0010    0.0950    0.0000 O.2     1  UNL1       -0.2758
      3 O           2.5369    1.0950    0.0000 O.3     1  UNL1       -0.4793
      4 O          10.3312    1.5950    0.0000 O.3     1  UNL1       -0.4795
      5 OXT         3.4030    2.5950    0.0000 O.2     1  UNL1       -0.2489
      6 OXT         9.4651    0.0950    0.0000 O.2     1  UNL1       -0.2493
      7 N           5.1350    1.5950    0.0000 N.am    1  UNL1       -0.3017
      8 N           8.5991    2.5950    0.0000 N.3     1  UNL1       -0.3184
      9 C           7.7331    1.0950    0.0000 C.3     1  UNL1       -0.0191
     10 CA          4.2690    1.0950    0.0000 C.3     1  UNL1        0.1292
     11 C           6.8671    1.5950    0.0000 C.3     1  UNL1        0.0259
     12 CA          8.5991    1.5950    0.0000 C.3     1  UNL1        0.1037
     13 CB          4.2690    0.0950    0.0000 C.3     1  UNL1        0.0225
     14 C           6.0010    1.0950    0.0000 C.2     1  UNL1        0.2137
     15 C           3.4030   -1.4050    0.0000 C.3     1  UNL1       -0.0065
     16 C           3.4030    1.5950    0.0000 C.2     1  UNL1        0.3261
     17 C           2.5369   -1.9050    0.0000 C.3     1  UNL1       -0.0469
     18 C           9.4651    1.0950    0.0000 C.2     1  UNL1        0.3217
     19 C           2.5369   -2.9050    0.0000 C.3     1  UNL1       -0.0645
     20 H           7.3346    0.6201    0.0000 H       1  UNL1        0.0290
     21 H           8.1316    0.6201    0.0000 H       1  UNL1        0.0290
     22 HA          4.2690    1.7150    0.0000 H       1  UNL1        0.0623
     23 H           7.2656    2.0700    0.0000 H       1  UNL1        0.0359
     24 H           6.4685    2.0700    0.0000 H       1  UNL1        0.0359
     25 HA          8.0622    1.9050    0.0000 H       1  UNL1        0.0574
     26 HB1         4.4810   -0.4876    0.0000 H       1  UNL1        0.0400
     27 HB2         4.8796    0.2027    0.0000 H       1  UNL1        0.0400
     28 H           5.1350    2.2150    0.0000 H       1  UNL1        0.1495
     29 H           3.6150   -1.9876    0.0000 H       1  UNL1        0.0376
     30 H           4.0135   -1.2973    0.0000 H       1  UNL1        0.0376
     31 H           2.3249   -1.3224    0.0000 H       1  UNL1        0.0270
     32 H           1.9264   -2.0127    0.0000 H       1  UNL1        0.0270
     33 H1          9.1360    2.9050    0.0000 H       1  UNL1        0.1190
     34 H2          8.0622    2.9050    0.0000 H       1  UNL1        0.1190
     35 H           1.9169   -2.9050    0.0000 H       1  UNL1        0.0230
     36 H           2.5369   -3.5250    0.0000 H       1  UNL1        0.0230
     37 H           3.1569   -2.9050    0.0000 H       1  UNL1        0.0230
     38 H           2.0000    1.4050    0.0000 H       1  UNL1        0.2951
     39 H          10.8681    1.2850    0.0000 H       1  UNL1        0.2951
@<TRIPOS>BOND
     1     1    13    1
     2     1    15    1
     3     2    14    2
     4     3    16    1
     5     3    38    1
     6     4    18    1
     7     4    39    1
     8     5    16    2
     9     6    18    2
    10     7    10    1
    11     7    14   am
    12     7    28    1
    13     8    12    1
    14     8    33    1
    15     8    34    1
    16     9    11    1
    17     9    12    1
    18     9    20    1
    19     9    21    1
    20    10    13    1
    21    10    16    1
    22    10    22    1
    23    11    14    1
    24    11    23    1
    25    11    24    1
    26    12    18    1
    27    12    25    1
    28    13    26    1
    29    13    27    1
    30    15    17    1
    31    15    29    1
    32    15    30    1
    33    17    19    1
    34    17    31    1
    35    17    32    1
    36    19    35    1
    37    19    36    1
    38    19    37    1
