@<TRIPOS>MOLECULE
IMPHY000021
 37 38 0 0 0
SMALL
GASTEIGER

@<TRIPOS>ATOM
      1 O           2.8660   -2.8450    0.0000 O.3     1  UNL1       -0.5068
      2 O           9.7942    3.1550    0.0000 O.3     1  UNL1       -0.5068
      3 O           4.5981    3.1550    0.0000 O.2     1  UNL1       -0.2960
      4 C           4.5981    1.1550    0.0000 C.3     1  UNL1       -0.0061
      5 C           3.7320    1.6550    0.0000 C.2     1  UNL1       -0.0039
      6 C           2.8660    0.1550    0.0000 C.ar    1  UNL1       -0.0244
      7 C           2.8660    1.1550    0.0000 C.2     1  UNL1       -0.0481
      8 C           5.4641    1.6550    0.0000 C.2     1  UNL1       -0.0790
      9 C           7.1962    1.6550    0.0000 C.ar    1  UNL1       -0.0251
     10 C           6.3301    1.1550    0.0000 C.2     1  UNL1       -0.0582
     11 C           2.0000   -0.3450    0.0000 C.ar    1  UNL1       -0.0511
     12 C           3.7320   -0.3450    0.0000 C.ar    1  UNL1       -0.0511
     13 C           8.0622    1.1550    0.0000 C.ar    1  UNL1       -0.0512
     14 C           7.1962    2.6550    0.0000 C.ar    1  UNL1       -0.0512
     15 C           2.0000   -1.3450    0.0000 C.ar    1  UNL1       -0.0196
     16 C           3.7320   -1.3450    0.0000 C.ar    1  UNL1       -0.0196
     17 C           2.8660   -1.8450    0.0000 C.ar    1  UNL1        0.1169
     18 C           3.7320    2.6550    0.0000 C.2     1  UNL1        0.1466
     19 C           8.9282    1.6550    0.0000 C.ar    1  UNL1       -0.0196
     20 C           8.0622    3.1550    0.0000 C.ar    1  UNL1       -0.0196
     21 C           8.9282    2.6550    0.0000 C.ar    1  UNL1        0.1169
     22 H           4.1996    0.6801    0.0000 H       1  UNL1        0.0357
     23 H           4.9966    0.6801    0.0000 H       1  UNL1        0.0357
     24 H           2.3291    1.4650    0.0000 H       1  UNL1        0.0627
     25 H           5.4641    2.2750    0.0000 H       1  UNL1        0.0575
     26 H           6.3301    0.5350    0.0000 H       1  UNL1        0.0620
     27 H           1.4631   -0.0350    0.0000 H       1  UNL1        0.0625
     28 H           4.2690   -0.0350    0.0000 H       1  UNL1        0.0625
     29 H           8.0622    0.5350    0.0000 H       1  UNL1        0.0625
     30 H           6.6592    2.9650    0.0000 H       1  UNL1        0.0625
     31 H           1.4631   -1.6550    0.0000 H       1  UNL1        0.0654
     32 H           4.2690   -1.6550    0.0000 H       1  UNL1        0.0654
     33 H           9.4651    1.3450    0.0000 H       1  UNL1        0.0654
     34 H           8.0622    3.7750    0.0000 H       1  UNL1        0.0654
     35 H           3.1951    2.9650    0.0000 H       1  UNL1        0.1078
     36 H           2.3291   -3.1550    0.0000 H       1  UNL1        0.2921
     37 H          10.3312    2.8450    0.0000 H       1  UNL1        0.2921
@<TRIPOS>BOND
     1     1    17    1
     2     1    36    1
     3     2    21    1
     4     2    37    1
     5     3    18    2
     6     4     5    1
     7     4     8    1
     8     4    22    1
     9     4    23    1
    10     5     7    2
    11     5    18    1
    12     6     7    1
    13     6    11   ar
    14     6    12   ar
    15     7    24    1
    16     8    10    2
    17     8    25    1
    18     9    10    1
    19     9    13   ar
    20     9    14   ar
    21    10    26    1
    22    11    15   ar
    23    11    27    1
    24    12    16   ar
    25    12    28    1
    26    13    19   ar
    27    13    29    1
    28    14    20   ar
    29    14    30    1
    30    15    17   ar
    31    15    31    1
    32    16    17   ar
    33    16    32    1
    34    18    35    1
    35    19    21   ar
    36    19    33    1
    37    20    21   ar
    38    20    34    1
