@<TRIPOS>MOLECULE
IMPHY007850
 89 95 0 0 0
SMALL
GASTEIGER

@<TRIPOS>ATOM
      1 O           6.7281    5.2243    0.0000 O.3     1  UNL1       -0.3591
      2 O           6.3861    3.4354    0.0000 O.3     1  UNL1       -0.3145
      3 O           5.5000    2.9509    0.0000 O.3     1  UNL1       -0.3155
      4 O           5.6060    1.3744    0.0000 O.3     1  UNL1       -0.3052
      5 O           7.5337    0.2566    0.0000 O.3     1  UNL1       -0.4546
      6 O           9.5633    5.2680    0.0000 O.3     1  UNL1       -0.3773
      7 O           9.1512    5.9759    0.0000 O.3     1  UNL1       -0.3854
      8 O           7.9755    6.7876    0.0000 O.3     1  UNL1       -0.3920
      9 O          10.8455    5.2372    0.0000 O.2     1  UNL1       -0.2892
     10 O           9.2604    0.3927    0.0000 O.2     1  UNL1       -0.2456
     11 C           7.3164    3.3181    0.0000 C.3     1  UNL1        0.0480
     12 C           8.2173    2.8843    0.0000 C.3     1  UNL1        0.0985
     13 C           7.0938    4.2931    0.0000 C.3     1  UNL1        0.1013
     14 C           7.7173    5.0749    0.0000 C.3     1  UNL1        0.1479
     15 C           6.4468    2.7447    0.0000 C.3     1  UNL1        0.1089
     16 C           9.1183    3.3181    0.0000 C.3     1  UNL1        0.0465
     17 C           8.3112    1.8469    0.0000 C.3     1  UNL1        0.0269
     18 C           6.5166    1.7054    0.0000 C.3     1  UNL1        0.1593
     19 C           9.3408    4.2931    0.0000 C.3     1  UNL1        0.1650
     20 C           8.7173    5.0749    0.0000 C.3     1  UNL1        0.1252
     21 C           7.4551    1.2535    0.0000 C.3     1  UNL1        0.1438
     22 C           4.9932    2.1250    0.0000 C.3     1  UNL1        0.3163
     23 C           8.3408    5.8567    0.0000 C.3     1  UNL1        0.0783
     24 C           9.9730    2.8105    0.0000 C.2     1  UNL1       -0.0687
     25 C           9.2171    1.4234    0.0000 C.3     1  UNL1       -0.0563
     26 C          10.3311    4.3796    0.0000 C.2     1  UNL1        0.1933
     27 C           6.5836    0.7077    0.0000 C.2     1  UNL1       -0.0421
     28 C          10.7210    3.4652    0.0000 C.2     1  UNL1       -0.0085
     29 C           3.9955    2.0580    0.0000 C.ar    1  UNL1        0.0409
     30 C           5.7531    0.1507    0.0000 C.3     1  UNL1       -0.0411
     31 C           6.6507   -0.2901    0.0000 C.2     1  UNL1       -0.0968
     32 C          11.6960    3.2427    0.0000 C.3     1  UNL1       -0.0366
     33 C           3.4386    2.8886    0.0000 C.ar    1  UNL1       -0.0510
     34 C           3.5547    1.1604    0.0000 C.ar    1  UNL1       -0.0510
     35 C           8.4363   -0.1738    0.0000 C.2     1  UNL1        0.3323
     36 C           2.4408    2.8215    0.0000 C.ar    1  UNL1       -0.0613
     37 C           2.5569    1.0934    0.0000 C.ar    1  UNL1       -0.0613
     38 C           8.5149   -1.1708    0.0000 C.2     1  UNL1        0.0225
     39 C           2.0000    1.9239    0.0000 C.ar    1  UNL1       -0.0617
     40 C           9.4175   -1.6012    0.0000 C.2     1  UNL1       -0.0550
     41 C           9.4961   -2.5981    0.0000 C.2     1  UNL1       -0.0616
     42 C          10.3987   -3.0285    0.0000 C.2     1  UNL1       -0.0621
     43 C          10.4773   -4.0254    0.0000 C.2     1  UNL1       -0.0657
     44 C          11.3799   -4.4558    0.0000 C.2     1  UNL1       -0.0840
     45 C          11.4585   -5.4527    0.0000 C.3     1  UNL1       -0.0347
     46 C          12.3611   -5.8831    0.0000 C.3     1  UNL1       -0.0525
     47 C          12.4397   -6.8800    0.0000 C.3     1  UNL1       -0.0650
     48 H           7.8011    3.7047    0.0000 H       1  UNL1        0.0381
     49 H           6.5014    4.1102    0.0000 H       1  UNL1        0.0631
     50 H           7.0022    2.4693    0.0000 H       1  UNL1        0.0636
     51 H           9.0913    2.6987    0.0000 H       1  UNL1        0.0405
     52 H           8.8187    2.2030    0.0000 H       1  UNL1        0.0363
     53 H           8.3875    5.5999    0.0000 H       1  UNL1        0.0657
     54 H           8.0152    0.9877    0.0000 H       1  UNL1        0.0771
     55 H           8.7511    5.3919    0.0000 H       1  UNL1        0.0588
     56 H           8.8699    6.1800    0.0000 H       1  UNL1        0.0588
     57 H          10.0296    2.1931    0.0000 H       1  UNL1        0.0580
     58 H           8.9546    0.8618    0.0000 H       1  UNL1        0.0234
     59 H           9.7788    1.1609    0.0000 H       1  UNL1        0.0234
     60 H           9.4796    1.9851    0.0000 H       1  UNL1        0.0234
     61 H          10.1558    5.4508    0.0000 H       1  UNL1        0.2109
     62 H           8.8020    6.4881    0.0000 H       1  UNL1        0.2100
     63 H           5.4078    0.6657    0.0000 H       1  UNL1        0.0275
     64 H           5.2382   -0.1946    0.0000 H       1  UNL1        0.0275
     65 H           6.0984   -0.3642    0.0000 H       1  UNL1        0.0275
     66 H           7.3624    6.8800    0.0000 H       1  UNL1        0.2095
     67 H           6.1358   -0.6354    0.0000 H       1  UNL1        0.0535
     68 H           7.2072   -0.5634    0.0000 H       1  UNL1        0.0535
     69 H          11.5580    2.6382    0.0000 H       1  UNL1        0.0279
     70 H          12.3004    3.1047    0.0000 H       1  UNL1        0.0279
     71 H          11.8339    3.8471    0.0000 H       1  UNL1        0.0279
     72 H           3.7119    3.4451    0.0000 H       1  UNL1        0.0623
     73 H           3.9000    0.6455    0.0000 H       1  UNL1        0.0623
     74 H           2.0955    3.3365    0.0000 H       1  UNL1        0.0618
     75 H           2.2836    0.5369    0.0000 H       1  UNL1        0.0618
     76 H           8.0040   -1.5220    0.0000 H       1  UNL1        0.0689
     77 H           1.3814    1.8824    0.0000 H       1  UNL1        0.0618
     78 H           9.9284   -1.2499    0.0000 H       1  UNL1        0.0620
     79 H           8.9852   -2.9493    0.0000 H       1  UNL1        0.0618
     80 H          10.9096   -2.6772    0.0000 H       1  UNL1        0.0617
     81 H           9.9664   -4.3766    0.0000 H       1  UNL1        0.0614
     82 H          11.8908   -4.1046    0.0000 H       1  UNL1        0.0572
     83 H          10.8413   -5.3933    0.0000 H       1  UNL1        0.0307
     84 H          11.2929   -6.0502    0.0000 H       1  UNL1        0.0307
     85 H          12.9783   -5.9425    0.0000 H       1  UNL1        0.0266
     86 H          12.5267   -5.2856    0.0000 H       1  UNL1        0.0266
     87 H          11.8216   -6.9287    0.0000 H       1  UNL1        0.0230
     88 H          12.4884   -7.4981    0.0000 H       1  UNL1        0.0230
     89 H          13.0578   -6.8313    0.0000 H       1  UNL1        0.0230
@<TRIPOS>BOND
     1     1    13    1
     2     1    14    1
     3     2    12    1
     4     2    22    1
     5     3    15    1
     6     3    22    1
     7     4    18    1
     8     4    22    1
     9     5    21    1
    10     5    35    1
    11     6    19    1
    12     6    61    1
    13     7    20    1
    14     7    62    1
    15     8    23    1
    16     8    66    1
    17     9    26    2
    18    10    35    2
    19    11    12    1
    20    11    13    1
    21    11    15    1
    22    11    48    1
    23    12    16    1
    24    12    17    1
    25    13    14    1
    26    13    49    1
    27    14    20    1
    28    14    23    1
    29    15    18    1
    30    15    50    1
    31    16    19    1
    32    16    24    1
    33    16    51    1
    34    17    21    1
    35    17    25    1
    36    17    52    1
    37    18    21    1
    38    18    27    1
    39    19    20    1
    40    19    26    1
    41    20    53    1
    42    21    54    1
    43    22    29    1
    44    23    55    1
    45    23    56    1
    46    24    28    2
    47    24    57    1
    48    25    58    1
    49    25    59    1
    50    25    60    1
    51    26    28    1
    52    27    30    1
    53    27    31    2
    54    28    32    1
    55    29    33   ar
    56    29    34   ar
    57    30    63    1
    58    30    64    1
    59    30    65    1
    60    31    67    1
    61    31    68    1
    62    32    69    1
    63    32    70    1
    64    32    71    1
    65    33    36   ar
    66    33    72    1
    67    34    37   ar
    68    34    73    1
    69    35    38    1
    70    36    39   ar
    71    36    74    1
    72    37    39   ar
    73    37    75    1
    74    38    40    2
    75    38    76    1
    76    39    77    1
    77    40    41    1
    78    40    78    1
    79    41    42    2
    80    41    79    1
    81    42    43    1
    82    42    80    1
    83    43    44    2
    84    43    81    1
    85    44    45    1
    86    44    82    1
    87    45    46    1
    88    45    83    1
    89    45    84    1
    90    46    47    1
    91    46    85    1
    92    46    86    1
    93    47    87    1
    94    47    88    1
    95    47    89    1
