@<TRIPOS>MOLECULE
IMPHY002209
 36 36 0 0 0
SMALL
GASTEIGER

@<TRIPOS>ATOM
      1 O1          3.7040    2.4144    0.0000 O.2     1  <1>        -0.2756
      2 O2          7.9673    3.0835    0.0000 O.3     1  <1>        -0.4793
      3 O3          7.4321    1.4362    0.0000 O.2     1  <1>        -0.2489
      4 O4          2.8660   -3.3644    0.0000 O.3     1  <1>        -0.4795
      5 O5          2.0000   -1.8644    0.0000 O.2     1  <1>        -0.2493
      6 N1          5.4641    2.1356    0.0000 N.am    1  <1>        -0.2880
      7 N2          4.5981   -2.3644    0.0000 N.3     1  <1>        -0.3184
      8 C1          6.2731    2.7234    0.0000 C.3     1  <1>         0.1232
      9 C2          5.9641    3.6744    0.0000 C.3     1  <1>        -0.0156
     10 C3          5.4641    1.1356    0.0000 C.3     1  <1>         0.0155
     11 C4          4.9641    3.6744    0.0000 C.3     1  <1>         0.0264
     12 C5          4.5981    0.6356    0.0000 C.3     1  <1>        -0.0371
     13 C6          4.6551    2.7234    0.0000 C.2     1  <1>         0.2163
     14 C7          4.5981   -0.3644    0.0000 C.3     1  <1>        -0.0497
     15 C8          3.7320   -0.8644    0.0000 C.3     1  <1>        -0.0273
     16 C9          7.2242    2.4144    0.0000 C.2     1  <1>         0.3255
     17 C10         3.7320   -1.8644    0.0000 C.3     1  <1>         0.1032
     18 C11         2.8660   -2.3644    0.0000 C.2     1  <1>         0.3217
     19 H1          6.3701    2.1110    0.0000 H       1  <1>         0.0616
     20 H2          6.5706    3.8033    0.0000 H       1  <1>         0.0293
     21 H3          5.8993    4.2910    0.0000 H       1  <1>         0.0293
     22 H4          5.6762    0.5530    0.0000 H       1  <1>         0.0465
     23 H5          6.0747    1.2432    0.0000 H       1  <1>         0.0465
     24 H6          5.0289    4.2910    0.0000 H       1  <1>         0.0359
     25 H7          4.3576    3.8033    0.0000 H       1  <1>         0.0359
     26 H8          4.3860    1.2182    0.0000 H       1  <1>         0.0280
     27 H9          3.9875    0.5279    0.0000 H       1  <1>         0.0280
     28 H10         4.8101   -0.9470    0.0000 H       1  <1>         0.0266
     29 H11         5.2087   -0.2568    0.0000 H       1  <1>         0.0266
     30 H12         3.5200   -0.2818    0.0000 H       1  <1>         0.0286
     31 H13         3.1215   -0.9721    0.0000 H       1  <1>         0.0286
     32 H14         3.7320   -2.4844    0.0000 H       1  <1>         0.0574
     33 H15         4.5981   -2.9844    0.0000 H       1  <1>         0.1190
     34 H16         5.1350   -2.0544    0.0000 H       1  <1>         0.1190
     35 H17         8.5570    2.8919    0.0000 H       1  <1>         0.2951
     36 H18         2.3291   -3.6744    0.0000 H       1  <1>         0.2951
@<TRIPOS>BOND
     1     1    13    2
     2     2    16    1
     3     2    35    1
     4     3    16    2
     5     4    18    1
     6     4    36    1
     7     5    18    2
     8     6     8    1
     9     6    10    1
    10     6    13   am
    11    17     7    1
    12     7    33    1
    13     7    34    1
    14     8     9    1
    15     8    16    1
    16     8    19    1
    17     9    11    1
    18     9    20    1
    19     9    21    1
    20    10    12    1
    21    10    22    1
    22    10    23    1
    23    11    13    1
    24    11    24    1
    25    11    25    1
    26    12    14    1
    27    12    26    1
    28    12    27    1
    29    14    15    1
    30    14    28    1
    31    14    29    1
    32    15    17    1
    33    15    30    1
    34    15    31    1
    35    17    18    1
    36    17    32    1
