@<TRIPOS>MOLECULE
IMPHY002780
 60 63 0 0 0
SMALL
GASTEIGER

@<TRIPOS>ATOM
      1 O           4.4455   -1.4442    0.0000 O.3     1  UNL1       -0.4562
      2 O           7.9896    2.6459    0.0000 O.3     1  UNL1       -0.3918
      3 O           8.8435   -1.9234    0.0000 O.2     1  UNL1       -0.2971
      4 O           5.3631   -2.9580    0.0000 O.2     1  UNL1       -0.2505
      5 O          10.6195    0.0635    0.0000 O.3     1  UNL1       -0.4644
      6 O           9.7361   -1.4264    0.0000 O.2     1  UNL1       -0.2505
      7 O           2.0000    0.4433    0.0000 O.2     1  UNL1       -0.4706
      8 C           6.2455   -0.4234    0.0000 C.3     1  UNL1       -0.0116
      9 C           7.1115    0.0766    0.0000 C.3     1  UNL1       -0.0221
     10 C           7.9775   -0.4234    0.0000 C.3     1  UNL1        0.0339
     11 C           6.2455   -1.4234    0.0000 C.3     1  UNL1        0.0688
     12 C           7.0954    1.1181    0.0000 C.3     1  UNL1       -0.0228
     13 C           8.8875    0.0835    0.0000 C.3     1  UNL1        0.0685
     14 C           5.3515    0.1113    0.0000 C.3     1  UNL1       -0.0049
     15 C           7.1115   -1.9234    0.0000 C.3     1  UNL1        0.0196
     16 C           7.9775   -1.4234    0.0000 C.2     1  UNL1        0.1383
     17 C           7.9935    1.6459    0.0000 C.3     1  UNL1        0.0563
     18 C           8.8956    1.1251    0.0000 C.3     1  UNL1       -0.0133
     19 C           6.2455    0.5766    0.0000 C.3     1  UNL1       -0.0584
     20 C           4.4455   -0.4025    0.0000 C.3     1  UNL1        0.1315
     21 C           5.3515   -1.9580    0.0000 C.2     1  UNL1        0.3117
     22 C           9.7477   -0.4265    0.0000 C.2     1  UNL1        0.3110
     23 C           3.5814    0.1008    0.0000 C.ar    1  UNL1        0.0304
     24 C           3.4807    1.0957    0.0000 C.ar    1  UNL1       -0.0172
     25 C           2.6663   -0.3024    0.0000 C.ar    1  UNL1        0.0983
     26 C          11.4796   -0.4465    0.0000 C.3     1  UNL1        0.0925
     27 C           2.5033    1.3074    0.0000 C.ar    1  UNL1        0.0921
     28 C          12.3514    0.0434    0.0000 C.3     1  UNL1       -0.0188
     29 C          13.2116   -0.4666    0.0000 C.3     1  UNL1       -0.0528
     30 C          14.0833    0.0234    0.0000 C.3     1  UNL1       -0.0652
     31 H           7.8443    0.5073    0.0000 H       1  UNL1        0.0314
     32 H           8.7103   -0.8540    0.0000 H       1  UNL1        0.0388
     33 H           6.2520   -2.2733    0.0000 H       1  UNL1        0.0423
     34 H           6.8774    1.6985    0.0000 H       1  UNL1        0.0293
     35 H           6.4863    1.0026    0.0000 H       1  UNL1        0.0293
     36 H           8.8792   -0.5365    0.0000 H       1  UNL1        0.0421
     37 H           5.7561    0.5811    0.0000 H       1  UNL1        0.0310
     38 H           4.9579    0.5903    0.0000 H       1  UNL1        0.0310
     39 H           6.7130   -2.3983    0.0000 H       1  UNL1        0.0350
     40 H           7.5100   -2.3983    0.0000 H       1  UNL1        0.0350
     41 H           7.4548    1.9528    0.0000 H       1  UNL1        0.0593
     42 H           9.5056    1.0143    0.0000 H       1  UNL1        0.0298
     43 H           9.1091    1.7071    0.0000 H       1  UNL1        0.0298
     44 H           6.8655    0.5766    0.0000 H       1  UNL1        0.0235
     45 H           6.2455    1.1966    0.0000 H       1  UNL1        0.0235
     46 H           5.6255    0.5766    0.0000 H       1  UNL1        0.0235
     47 H           3.9079   -0.7115    0.0000 H       1  UNL1        0.0786
     48 H           8.5254    2.9580    0.0000 H       1  UNL1        0.2098
     49 H           3.9430    1.5088    0.0000 H       1  UNL1        0.0653
     50 H           2.5350   -0.9084    0.0000 H       1  UNL1        0.1033
     51 H          11.0756   -0.9168    0.0000 H       1  UNL1        0.0697
     52 H          11.8727   -0.9260    0.0000 H       1  UNL1        0.0697
     53 H           2.2533    1.8748    0.0000 H       1  UNL1        0.1029
     54 H          12.7554    0.5137    0.0000 H       1  UNL1        0.0298
     55 H          11.9584    0.5230    0.0000 H       1  UNL1        0.0298
     56 H          12.8076   -0.9369    0.0000 H       1  UNL1        0.0264
     57 H          13.6046   -0.9461    0.0000 H       1  UNL1        0.0264
     58 H          14.3871   -0.5171    0.0000 H       1  UNL1        0.0230
     59 H          14.6238    0.3272    0.0000 H       1  UNL1        0.0230
     60 H          13.7796    0.5639    0.0000 H       1  UNL1        0.0230
@<TRIPOS>BOND
     1     1    20    1
     2     1    21    1
     3    17     2    1
     4     2    48    1
     5     3    16    2
     6     4    21    2
     7     5    22    1
     8     5    26    1
     9     6    22    2
    10     7    25   ar
    11     7    27   ar
    12     8     9    1
    13     8    11    1
    14     8    14    1
    15     8    19    1
    16     9    10    1
    17     9    12    1
    18     9    31    1
    19    10    13    1
    20    10    16    1
    21    10    32    1
    22    11    15    1
    23    11    21    1
    24    11    33    1
    25    12    17    1
    26    12    34    1
    27    12    35    1
    28    13    18    1
    29    13    22    1
    30    13    36    1
    31    14    20    1
    32    14    37    1
    33    14    38    1
    34    15    16    1
    35    15    39    1
    36    15    40    1
    37    17    18    1
    38    17    41    1
    39    18    42    1
    40    18    43    1
    41    19    44    1
    42    19    45    1
    43    19    46    1
    44    20    23    1
    45    20    47    1
    46    23    24   ar
    47    23    25   ar
    48    24    27   ar
    49    24    49    1
    50    25    50    1
    51    26    28    1
    52    26    51    1
    53    26    52    1
    54    27    53    1
    55    28    29    1
    56    28    54    1
    57    28    55    1
    58    29    30    1
    59    29    56    1
    60    29    57    1
    61    30    58    1
    62    30    59    1
    63    30    60    1
