@<TRIPOS>MOLECULE
IMPHY009126
 41 42 0 0 0
SMALL
GASTEIGER

@<TRIPOS>ATOM
      1 O           5.1350   -0.5950    0.0000 O.3     1  UNL1       -0.3313
      2 O           6.8671   -0.5950    0.0000 O.3     1  UNL1       -0.4571
      3 O           5.1350   -3.5950    0.0000 O.3     1  UNL1       -0.3864
      4 O           3.4030   -2.5950    0.0000 O.3     1  UNL1       -0.3865
      5 O           6.8671   -2.5950    0.0000 O.3     1  UNL1       -0.3829
      6 O           2.5369   -1.0950    0.0000 O.3     1  UNL1       -0.3924
      7 O           8.5991    0.4050    0.0000 O.3     1  UNL1       -0.5033
      8 O           5.1350    3.4050    0.0000 O.3     1  UNL1       -0.4644
      9 O           4.2690    1.9050    0.0000 O.2     1  UNL1       -0.2450
     10 C           5.1350   -2.5950    0.0000 C.3     1  UNL1        0.1152
     11 C           4.2690   -2.0950    0.0000 C.3     1  UNL1        0.1120
     12 C           6.0010   -2.0950    0.0000 C.3     1  UNL1        0.1454
     13 C           4.2690   -1.0950    0.0000 C.3     1  UNL1        0.1140
     14 C           6.0010   -1.0950    0.0000 C.3     1  UNL1        0.2310
     15 C           3.4030   -0.5950    0.0000 C.3     1  UNL1        0.0731
     16 C           6.8671    0.4050    0.0000 C.ar    1  UNL1        0.1659
     17 C           6.0010    0.9050    0.0000 C.ar    1  UNL1       -0.0022
     18 C           7.7331    0.9050    0.0000 C.ar    1  UNL1        0.1586
     19 C           6.0010    1.9050    0.0000 C.ar    1  UNL1        0.0627
     20 C           7.7331    1.9050    0.0000 C.ar    1  UNL1       -0.0157
     21 C           6.8671    2.4050    0.0000 C.ar    1  UNL1       -0.0441
     22 C           5.1350    2.4050    0.0000 C.2     1  UNL1        0.3390
     23 C           4.2690    3.9050    0.0000 C.3     1  UNL1        0.0820
     24 H           5.6720   -2.9050    0.0000 H       1  UNL1        0.0648
     25 H           4.2690   -2.7150    0.0000 H       1  UNL1        0.0647
     26 H           6.5380   -1.7850    0.0000 H       1  UNL1        0.0683
     27 H           4.2690   -0.4750    0.0000 H       1  UNL1        0.0647
     28 H           6.0010   -0.4750    0.0000 H       1  UNL1        0.1084
     29 H           3.8015   -0.1201    0.0000 H       1  UNL1        0.0584
     30 H           3.0044   -0.1201    0.0000 H       1  UNL1        0.0584
     31 H           4.5981   -3.9050    0.0000 H       1  UNL1        0.2100
     32 H           3.4030   -3.2150    0.0000 H       1  UNL1        0.2100
     33 H           6.8671   -3.2150    0.0000 H       1  UNL1        0.2102
     34 H           2.0000   -0.7850    0.0000 H       1  UNL1        0.2095
     35 H           5.4641    0.5950    0.0000 H       1  UNL1        0.0663
     36 H           8.2700    2.2150    0.0000 H       1  UNL1        0.0655
     37 H           6.8671    3.0250    0.0000 H       1  UNL1        0.0627
     38 H           9.1360    0.7150    0.0000 H       1  UNL1        0.2923
     39 H           4.5790    4.4419    0.0000 H       1  UNL1        0.0661
     40 H           3.7320    4.2150    0.0000 H       1  UNL1        0.0661
     41 H           3.9590    3.3681    0.0000 H       1  UNL1        0.0661
@<TRIPOS>BOND
     1     1    13    1
     2     1    14    1
     3    14     2    1
     4     2    16    1
     5    10     3    1
     6     3    31    1
     7    11     4    1
     8     4    32    1
     9    12     5    1
    10     5    33    1
    11     6    15    1
    12     6    34    1
    13     7    18    1
    14     7    38    1
    15     8    22    1
    16     8    23    1
    17     9    22    2
    18    10    11    1
    19    10    12    1
    20    10    24    1
    21    11    13    1
    22    11    25    1
    23    12    14    1
    24    12    26    1
    25    13    15    1
    26    13    27    1
    27    14    28    1
    28    15    29    1
    29    15    30    1
    30    16    17   ar
    31    16    18   ar
    32    17    19   ar
    33    17    35    1
    34    18    20   ar
    35    19    21   ar
    36    19    22    1
    37    20    21   ar
    38    20    36    1
    39    21    37    1
    40    23    39    1
    41    23    40    1
    42    23    41    1
