@<TRIPOS>MOLECULE
IMPHY002030
 41 42 0 0 0
SMALL
GASTEIGER

@<TRIPOS>ATOM
      1 O           2.0000   -0.5000    0.0000 O.3     1  UNL1       -0.3856
      2 O           2.8660   -5.0000    0.0000 O.3     1  UNL1       -0.4951
      3 O           5.4641    0.5000    0.0000 O.2     1  UNL1       -0.2708
      4 N           3.7320    0.5000    0.0000 N.am    1  UNL1       -0.3090
      5 C           2.8660   -1.0000    0.0000 C.3     1  UNL1        0.0956
      6 C           3.7320   -0.5000    0.0000 C.3     1  UNL1        0.0420
      7 C           2.8660   -2.0000    0.0000 C.ar    1  UNL1       -0.0174
      8 C           2.0000   -2.5000    0.0000 C.ar    1  UNL1       -0.0526
      9 C           3.7320   -2.5000    0.0000 C.ar    1  UNL1       -0.0526
     10 C           2.0000   -3.5000    0.0000 C.ar    1  UNL1       -0.0196
     11 C           3.7320   -3.5000    0.0000 C.ar    1  UNL1       -0.0196
     12 C           2.8660   -4.0000    0.0000 C.ar    1  UNL1        0.1201
     13 C           4.5981    1.0000    0.0000 C.2     1  UNL1        0.2370
     14 C           4.5981    2.0000    0.0000 C.2     1  UNL1        0.0007
     15 C           5.4641    3.5000    0.0000 C.ar    1  UNL1       -0.0249
     16 C           5.4641    2.5000    0.0000 C.2     1  UNL1       -0.0497
     17 C           6.3301    4.0000    0.0000 C.ar    1  UNL1       -0.0546
     18 C           4.5981    4.0000    0.0000 C.ar    1  UNL1       -0.0546
     19 C           6.3301    5.0000    0.0000 C.ar    1  UNL1       -0.0612
     20 C           4.5981    5.0000    0.0000 C.ar    1  UNL1       -0.0612
     21 C           2.0000   -5.5000    0.0000 C.3     1  UNL1        0.0788
     22 C           5.4641    5.5000    0.0000 C.ar    1  UNL1       -0.0617
     23 H           2.8660   -0.3800    0.0000 H       1  UNL1        0.0659
     24 H           3.9441   -1.0826    0.0000 H       1  UNL1        0.0491
     25 H           4.3426   -0.3923    0.0000 H       1  UNL1        0.0491
     26 H           1.4631   -2.1900    0.0000 H       1  UNL1        0.0622
     27 H           4.2690   -2.1900    0.0000 H       1  UNL1        0.0622
     28 H           3.1951    0.8100    0.0000 H       1  UNL1        0.1491
     29 H           1.4631   -3.8100    0.0000 H       1  UNL1        0.0654
     30 H           4.2690   -3.8100    0.0000 H       1  UNL1        0.0654
     31 H           2.0000    0.1200    0.0000 H       1  UNL1        0.2103
     32 H           4.0611    2.3100    0.0000 H       1  UNL1        0.0669
     33 H           6.0010    2.1900    0.0000 H       1  UNL1        0.0625
     34 H           6.8671    3.6900    0.0000 H       1  UNL1        0.0623
     35 H           4.0611    3.6900    0.0000 H       1  UNL1        0.0623
     36 H           6.8671    5.3100    0.0000 H       1  UNL1        0.0618
     37 H           4.0611    5.3100    0.0000 H       1  UNL1        0.0618
     38 H           1.6900   -4.9631    0.0000 H       1  UNL1        0.0660
     39 H           1.4631   -5.8100    0.0000 H       1  UNL1        0.0660
     40 H           2.3100   -6.0369    0.0000 H       1  UNL1        0.0660
     41 H           5.4641    6.1200    0.0000 H       1  UNL1        0.0618
@<TRIPOS>BOND
     1     1     5    1
     2     1    31    1
     3     2    12    1
     4     2    21    1
     5     3    13    2
     6     4     6    1
     7     4    13   am
     8     4    28    1
     9     5     6    1
    10     5     7    1
    11     5    23    1
    12     6    24    1
    13     6    25    1
    14     7     8   ar
    15     7     9   ar
    16     8    10   ar
    17     8    26    1
    18     9    11   ar
    19     9    27    1
    20    10    12   ar
    21    10    29    1
    22    11    12   ar
    23    11    30    1
    24    13    14    1
    25    14    16    2
    26    14    32    1
    27    15    16    1
    28    15    17   ar
    29    15    18   ar
    30    16    33    1
    31    17    19   ar
    32    17    34    1
    33    18    20   ar
    34    18    35    1
    35    19    22   ar
    36    19    36    1
    37    20    22   ar
    38    20    37    1
    39    21    38    1
    40    21    39    1
    41    21    40    1
    42    22    41    1
