@<TRIPOS>MOLECULE
IMPHY009629
 58 62 0 0 0
SMALL
GASTEIGER

@<TRIPOS>ATOM
      1 O           5.1350   -1.5443    0.0000 O.3     1  UNL1       -0.3313
      2 O           6.8671   -1.5443    0.0000 O.3     1  UNL1       -0.4607
      3 O           5.1350   -4.5443    0.0000 O.3     1  UNL1       -0.3864
      4 O           3.4030   -3.5443    0.0000 O.3     1  UNL1       -0.3865
      5 O           6.8671   -3.5443    0.0000 O.3     1  UNL1       -0.3829
      6 O           2.5369   -2.0443    0.0000 O.3     1  UNL1       -0.3924
      7 O           9.7502    0.1269    0.0000 O.3     1  UNL1       -0.4520
      8 O          11.1533    0.9155    0.0000 O.3     1  UNL1       -0.4526
      9 O           5.0839    1.6001    0.0000 O.3     1  UNL1       -0.4944
     10 O          10.9150    4.1989    0.0000 O.3     1  UNL1       -0.4771
     11 O           6.5152    4.2997    0.0000 O.co2   1  UNL1       -0.5760
     12 O           8.1561    4.8543    0.0000 O.2     1  UNL1        0.0415
     13 O           9.2944    4.8100    0.0000 O.2     1  UNL1       -0.2451
     14 N           7.4958    4.1033    0.0000 N.pl3   1  UNL1        0.0803
     15 C           5.1350   -3.5443    0.0000 C.3     1  UNL1        0.1152
     16 C           4.2690   -3.0443    0.0000 C.3     1  UNL1        0.1120
     17 C           6.0010   -3.0443    0.0000 C.3     1  UNL1        0.1454
     18 C           4.2690   -2.0443    0.0000 C.3     1  UNL1        0.1140
     19 C           6.0010   -2.0443    0.0000 C.3     1  UNL1        0.2308
     20 C           3.4030   -1.5443    0.0000 C.3     1  UNL1        0.0731
     21 C           6.8671   -0.5443    0.0000 C.ar    1  UNL1        0.1281
     22 C           7.7920    1.0868    0.0000 C.ar    1  UNL1        0.0008
     23 C           8.6921    1.6111    0.0000 C.ar    1  UNL1        0.0428
     24 C           6.8920    1.6111    0.0000 C.ar    1  UNL1        0.0311
     25 C           7.8046    0.0018    0.0000 C.ar    1  UNL1       -0.0112
     26 C           8.7037    2.6110    0.0000 C.ar    1  UNL1        0.0775
     27 C           5.9295    0.0018    0.0000 C.ar    1  UNL1        0.0225
     28 C           9.5523    1.1011    0.0000 C.ar    1  UNL1        0.1747
     29 C           5.9421    1.0868    0.0000 C.ar    1  UNL1        0.1315
     30 C           7.8160    3.1559    0.0000 C.ar    1  UNL1        0.2824
     31 C           6.9040    2.6526    0.0000 C.ar    1  UNL1        0.0275
     32 C           9.5754    3.1009    0.0000 C.ar    1  UNL1        0.0767
     33 C          10.4241    1.5910    0.0000 C.ar    1  UNL1        0.1677
     34 C          10.4356    2.5910    0.0000 C.ar    1  UNL1       -0.0013
     35 C          10.7377    0.0124    0.0000 C.3     1  UNL1        0.2333
     36 C           9.9283    4.0366    0.0000 C.2     1  UNL1        0.3377
     37 C           4.2102    1.1135    0.0000 C.3     1  UNL1        0.0788
     38 H           5.6720   -3.8543    0.0000 H       1  UNL1        0.0648
     39 H           4.2690   -3.6643    0.0000 H       1  UNL1        0.0647
     40 H           6.5380   -2.7343    0.0000 H       1  UNL1        0.0683
     41 H           4.2690   -1.4243    0.0000 H       1  UNL1        0.0647
     42 H           6.0010   -1.4243    0.0000 H       1  UNL1        0.1084
     43 H           3.8015   -1.0693    0.0000 H       1  UNL1        0.0584
     44 H           3.0044   -1.0693    0.0000 H       1  UNL1        0.0584
     45 H           4.5981   -4.8543    0.0000 H       1  UNL1        0.2100
     46 H           3.4030   -4.1643    0.0000 H       1  UNL1        0.2100
     47 H           6.8671   -4.1643    0.0000 H       1  UNL1        0.2102
     48 H           8.3439   -0.3040    0.0000 H       1  UNL1        0.0660
     49 H           5.3902   -0.3040    0.0000 H       1  UNL1        0.0691
     50 H           6.3719    2.9708    0.0000 H       1  UNL1        0.0693
     51 H           2.0000   -1.7343    0.0000 H       1  UNL1        0.2095
     52 H          10.9761    2.8947    0.0000 H       1  UNL1        0.0664
     53 H          10.6020   -0.5925    0.0000 H       1  UNL1        0.1166
     54 H          11.3251   -0.1861    0.0000 H       1  UNL1        0.1166
     55 H           3.9085    1.6551    0.0000 H       1  UNL1        0.0660
     56 H           3.6686    0.8118    0.0000 H       1  UNL1        0.0660
     57 H           4.5119    0.5718    0.0000 H       1  UNL1        0.0660
     58 H          11.1338    4.7790    0.0000 H       1  UNL1        0.2954
@<TRIPOS>UNITY_ATOM_ATTR
11 1
charge -1
14 1
charge 1
@<TRIPOS>BOND
     1     1    18    1
     2     1    19    1
     3    19     2    1
     4     2    21    1
     5    15     3    1
     6     3    45    1
     7    16     4    1
     8     4    46    1
     9    17     5    1
    10     5    47    1
    11     6    20    1
    12     6    51    1
    13     7    28    1
    14     7    35    1
    15     8    33    1
    16     8    35    1
    17     9    29    1
    18     9    37    1
    19    10    36    1
    20    10    58    1
    21    11    14    1
    22    12    14    2
    23    13    36    2
    24    14    30    1
    25    15    16    1
    26    15    17    1
    27    15    38    1
    28    16    18    1
    29    16    39    1
    30    17    19    1
    31    17    40    1
    32    18    20    1
    33    18    41    1
    34    19    42    1
    35    20    43    1
    36    20    44    1
    37    21    25   ar
    38    21    27   ar
    39    22    23   ar
    40    22    24   ar
    41    22    25   ar
    42    23    26   ar
    43    23    28   ar
    44    24    29   ar
    45    24    31   ar
    46    25    48    1
    47    26    30   ar
    48    26    32   ar
    49    27    29   ar
    50    27    49    1
    51    28    33   ar
    52    30    31   ar
    53    31    50    1
    54    32    34   ar
    55    32    36    1
    56    33    34   ar
    57    34    52    1
    58    35    53    1
    59    35    54    1
    60    37    55    1
    61    37    56    1
    62    37    57    1
