@<TRIPOS>MOLECULE
IMPHY009039
 37 37 0 0 0
SMALL
GASTEIGER

@<TRIPOS>ATOM
      1 O           6.0010    2.0000    0.0000 O.3     1  UNL1       -0.3872
      2 O           2.5369    1.0000    0.0000 O.3     1  UNL1       -0.5065
      3 O           6.8671   -3.5000    0.0000 O.3     1  UNL1       -0.4649
      4 O           7.7331   -2.0000    0.0000 O.2     1  UNL1       -0.2456
      5 C           4.2690    2.0000    0.0000 C.3     1  UNL1        0.0057
      6 C           5.1350    2.5000    0.0000 C.3     1  UNL1        0.0798
      7 C           4.2690    1.0000    0.0000 C.ar    1  UNL1       -0.0026
      8 C           5.1350    3.5000    0.0000 C.2     1  UNL1       -0.0513
      9 C           5.1350    0.5000    0.0000 C.ar    1  UNL1       -0.0479
     10 C           3.4030    0.5000    0.0000 C.ar    1  UNL1        0.1201
     11 C           5.1350   -0.5000    0.0000 C.ar    1  UNL1       -0.0243
     12 C           3.4030   -0.5000    0.0000 C.ar    1  UNL1       -0.0194
     13 C           4.2690   -1.0000    0.0000 C.ar    1  UNL1       -0.0511
     14 C           6.0010    4.0000    0.0000 C.3     1  UNL1       -0.0416
     15 C           6.0010   -1.0000    0.0000 C.2     1  UNL1       -0.0478
     16 C           4.2690    4.0000    0.0000 C.2     1  UNL1       -0.0973
     17 C           6.0010   -2.0000    0.0000 C.2     1  UNL1        0.0230
     18 C           6.8671   -2.5000    0.0000 C.2     1  UNL1        0.3317
     19 C           7.7331   -4.0000    0.0000 C.3     1  UNL1        0.0820
     20 H           4.0569    2.5826    0.0000 H       1  UNL1        0.0343
     21 H           3.6584    1.8923    0.0000 H       1  UNL1        0.0343
     22 H           5.1350    1.8800    0.0000 H       1  UNL1        0.0643
     23 H           5.6720    0.8100    0.0000 H       1  UNL1        0.0627
     24 H           2.8660   -0.8100    0.0000 H       1  UNL1        0.0654
     25 H           4.2690   -1.6200    0.0000 H       1  UNL1        0.0625
     26 H           6.3110    3.4631    0.0000 H       1  UNL1        0.0275
     27 H           6.5380    4.3100    0.0000 H       1  UNL1        0.0275
     28 H           5.6910    4.5369    0.0000 H       1  UNL1        0.0275
     29 H           6.5380    2.3100    0.0000 H       1  UNL1        0.2102
     30 H           6.5380   -0.6900    0.0000 H       1  UNL1        0.0626
     31 H           4.2690    4.6200    0.0000 H       1  UNL1        0.0535
     32 H           3.7320    3.6900    0.0000 H       1  UNL1        0.0535
     33 H           2.0000    0.6900    0.0000 H       1  UNL1        0.2921
     34 H           5.4641   -2.3100    0.0000 H       1  UNL1        0.0689
     35 H           7.4231   -4.5369    0.0000 H       1  UNL1        0.0661
     36 H           8.2700   -4.3100    0.0000 H       1  UNL1        0.0661
     37 H           8.0431   -3.4631    0.0000 H       1  UNL1        0.0661
@<TRIPOS>BOND
     1     6     1    1
     2     1    29    1
     3     2    10    1
     4     2    33    1
     5     3    18    1
     6     3    19    1
     7     4    18    2
     8     5     6    1
     9     5     7    1
    10     5    20    1
    11     5    21    1
    12     6     8    1
    13     6    22    1
    14     7     9   ar
    15     7    10   ar
    16     8    14    1
    17     8    16    2
    18     9    11   ar
    19     9    23    1
    20    10    12   ar
    21    11    13   ar
    22    11    15    1
    23    12    13   ar
    24    12    24    1
    25    13    25    1
    26    14    26    1
    27    14    27    1
    28    14    28    1
    29    15    17    2
    30    15    30    1
    31    16    31    1
    32    16    32    1
    33    17    18    1
    34    17    34    1
    35    19    35    1
    36    19    36    1
    37    19    37    1
