@<TRIPOS>MOLECULE
IMPHY008336
 36 36 0 0 0
SMALL
GASTEIGER

@<TRIPOS>ATOM
      1 O           2.0000   -1.2500    0.0000 O.2     1  UNL1       -0.2876
      2 O           5.4641   -3.2500    0.0000 O.2     1  UNL1       -0.2876
      3 O           6.3301    4.2500    0.0000 O.2     1  UNL1       -0.2961
      4 C           3.7320   -0.2500    0.0000 C.3     1  UNL1       -0.0147
      5 C           4.5981    0.2500    0.0000 C.3     1  UNL1       -0.0429
      6 C           3.7320   -1.2500    0.0000 C.2     1  UNL1        0.0057
      7 C           4.5981    1.2500    0.0000 C.3     1  UNL1       -0.0336
      8 C           2.8660    0.2500    0.0000 C.3     1  UNL1       -0.0583
      9 C           2.8660   -1.7500    0.0000 C.2     1  UNL1        0.1829
     10 C           4.5981   -1.7500    0.0000 C.2     1  UNL1       -0.0076
     11 C           5.4641    1.7500    0.0000 C.2     1  UNL1       -0.0780
     12 C           3.7320   -3.2500    0.0000 C.2     1  UNL1       -0.0002
     13 C           4.5981   -2.7500    0.0000 C.2     1  UNL1        0.1824
     14 C           2.8660   -2.7500    0.0000 C.2     1  UNL1       -0.0081
     15 C           5.4641    2.7500    0.0000 C.2     1  UNL1       -0.0152
     16 C           3.7320   -4.2500    0.0000 C.3     1  UNL1       -0.0360
     17 C           4.5981    3.2500    0.0000 C.3     1  UNL1       -0.0370
     18 C           6.3301    3.2500    0.0000 C.2     1  UNL1        0.1457
     19 H           3.7320    0.6000    0.0000 H       1  UNL1        0.0347
     20 H           4.8101   -0.3326    0.0000 H       1  UNL1        0.0274
     21 H           5.2087    0.3577    0.0000 H       1  UNL1        0.0274
     22 H           4.3860    1.8326    0.0000 H       1  UNL1        0.0308
     23 H           3.9875    1.1423    0.0000 H       1  UNL1        0.0308
     24 H           3.1760    0.7869    0.0000 H       1  UNL1        0.0236
     25 H           2.3291    0.5600    0.0000 H       1  UNL1        0.0236
     26 H           2.5560   -0.2869    0.0000 H       1  UNL1        0.0236
     27 H           5.1350   -1.4400    0.0000 H       1  UNL1        0.0660
     28 H           6.0010    1.4400    0.0000 H       1  UNL1        0.0576
     29 H           2.3291   -3.0600    0.0000 H       1  UNL1        0.0660
     30 H           3.1120   -4.2500    0.0000 H       1  UNL1        0.0279
     31 H           3.7320   -4.8700    0.0000 H       1  UNL1        0.0279
     32 H           4.3520   -4.2500    0.0000 H       1  UNL1        0.0279
     33 H           4.9081    3.7869    0.0000 H       1  UNL1        0.0278
     34 H           4.0611    3.5600    0.0000 H       1  UNL1        0.0278
     35 H           4.2881    2.7131    0.0000 H       1  UNL1        0.0278
     36 H           6.8671    2.9400    0.0000 H       1  UNL1        0.1078
@<TRIPOS>BOND
     1     1     9    2
     2     2    13    2
     3     3    18    2
     4     4     5    1
     5     4     6    1
     6     4     8    1
     7     4    19    1
     8     5     7    1
     9     5    20    1
    10     5    21    1
    11     6     9    1
    12     6    10    2
    13     7    11    1
    14     7    22    1
    15     7    23    1
    16     8    24    1
    17     8    25    1
    18     8    26    1
    19     9    14    1
    20    10    13    1
    21    10    27    1
    22    11    15    2
    23    11    28    1
    24    12    13    1
    25    12    14    2
    26    12    16    1
    27    14    29    1
    28    15    17    1
    29    15    18    1
    30    16    30    1
    31    16    31    1
    32    16    32    1
    33    17    33    1
    34    17    34    1
    35    17    35    1
    36    18    36    1
