@<TRIPOS>MOLECULE
IMPHY014064
 40 42 0 0 0
SMALL
GASTEIGER

@<TRIPOS>ATOM
      1 O           4.6660   -0.9031    0.0000 O.2     1  UNL1       -0.4470
      2 O           6.4144   -1.9377    0.0000 O.3     1  UNL1       -0.4884
      3 O           8.1962   -0.9273    0.0000 O.3     1  UNL1       -0.4883
      4 O           8.1962    1.1211    0.0000 O.3     1  UNL1       -0.4884
      5 O           6.4144    2.1315    0.0000 O.3     1  UNL1       -0.5027
      6 O           2.9176   -1.9377    0.0000 O.3     1  UNL1       -0.4914
      7 O           4.6660    2.0969    0.0000 O.2     1  UNL1       -0.2863
      8 C           5.5321    0.5969    0.0000 C.ar    1  UNL1        0.1134
      9 C           5.5321   -0.4031    0.0000 C.ar    1  UNL1        0.1883
     10 C           3.8000    0.5969    0.0000 C.ar    1  UNL1        0.0684
     11 C           3.8000   -0.4031    0.0000 C.ar    1  UNL1        0.1808
     12 C           4.6660    1.0969    0.0000 C.ar    1  UNL1        0.2041
     13 C           6.4260   -0.9378    0.0000 C.ar    1  UNL1        0.2088
     14 C           6.4260    1.1316    0.0000 C.ar    1  UNL1        0.1771
     15 C           7.3321   -0.4239    0.0000 C.ar    1  UNL1        0.2110
     16 C           7.3321    0.6177    0.0000 C.ar    1  UNL1        0.2080
     17 C           2.9061   -0.9378    0.0000 C.ar    1  UNL1        0.1628
     18 C           2.9061    1.1316    0.0000 C.ar    1  UNL1       -0.0471
     19 C           2.0000   -0.4239    0.0000 C.ar    1  UNL1       -0.0162
     20 C           2.0000    0.6177    0.0000 C.ar    1  UNL1       -0.0574
     21 C           7.2746   -2.4477    0.0000 C.3     1  UNL1        0.0791
     22 C           9.0641   -0.4306    0.0000 C.3     1  UNL1        0.0791
     23 C           9.0641    0.6244    0.0000 C.3     1  UNL1        0.0791
     24 C           2.0574   -2.4477    0.0000 C.3     1  UNL1        0.0790
     25 H           2.9132    1.7515    0.0000 H       1  UNL1        0.0626
     26 H           1.4643   -0.7360    0.0000 H       1  UNL1        0.0655
     27 H           1.4643    0.9298    0.0000 H       1  UNL1        0.0619
     28 H           6.9478    2.4477    0.0000 H       1  UNL1        0.2923
     29 H           6.9584   -2.9810    0.0000 H       1  UNL1        0.0660
     30 H           7.8079   -2.7639    0.0000 H       1  UNL1        0.0660
     31 H           7.5908   -1.9144    0.0000 H       1  UNL1        0.0660
     32 H           9.3720   -0.9687    0.0000 H       1  UNL1        0.0660
     33 H           9.6022   -0.1227    0.0000 H       1  UNL1        0.0660
     34 H           8.7562    0.1075    0.0000 H       1  UNL1        0.0660
     35 H           8.7562    0.0863    0.0000 H       1  UNL1        0.0660
     36 H           9.6022    0.3165    0.0000 H       1  UNL1        0.0660
     37 H           9.3720    1.1625    0.0000 H       1  UNL1        0.0660
     38 H           1.7413   -1.9144    0.0000 H       1  UNL1        0.0660
     39 H           1.5241   -2.7639    0.0000 H       1  UNL1        0.0660
     40 H           2.3736   -2.9810    0.0000 H       1  UNL1        0.0660
@<TRIPOS>BOND
     1     1     9   ar
     2     1    11   ar
     3     2    13    1
     4     2    21    1
     5     3    15    1
     6     3    22    1
     7     4    16    1
     8     4    23    1
     9     5    14    1
    10     5    28    1
    11     6    17    1
    12     6    24    1
    13     7    12    2
    14     8     9   ar
    15     8    12   ar
    16     8    14   ar
    17     9    13   ar
    18    10    11   ar
    19    10    12   ar
    20    10    18   ar
    21    11    17   ar
    22    13    15   ar
    23    14    16   ar
    24    15    16   ar
    25    17    19   ar
    26    18    20   ar
    27    18    25    1
    28    19    20   ar
    29    19    26    1
    30    20    27    1
    31    21    29    1
    32    21    30    1
    33    21    31    1
    34    22    32    1
    35    22    33    1
    36    22    34    1
    37    23    35    1
    38    23    36    1
    39    23    37    1
    40    24    38    1
    41    24    39    1
    42    24    40    1
