@<TRIPOS>MOLECULE
IMPHY005311
 54 57 0 0 0
SMALL
GASTEIGER

@<TRIPOS>ATOM
      1 O           6.3465   -1.2621    0.0000 O.3     1  UNL1       -0.5054
      2 O           9.0458    1.2621    0.0000 O.3     1  UNL1       -0.5054
      3 O           4.5981   -1.2275    0.0000 O.3     1  UNL1       -0.5053
      4 O          10.7942    1.2275    0.0000 O.3     1  UNL1       -0.5053
      5 O           2.8660   -1.2275    0.0000 O.2     1  UNL1       -0.2922
      6 O          12.5263    1.2275    0.0000 O.2     1  UNL1       -0.2922
      7 C           7.2641    0.2517    0.0000 C.ar    1  UNL1        0.0278
      8 C           8.1282   -0.2517    0.0000 C.ar    1  UNL1        0.0278
      9 C           5.4641    0.2725    0.0000 C.ar    1  UNL1        0.0662
     10 C           9.9282   -0.2725    0.0000 C.ar    1  UNL1        0.0662
     11 C           5.4641    1.2725    0.0000 C.ar    1  UNL1       -0.0106
     12 C           9.9282   -1.2725    0.0000 C.ar    1  UNL1       -0.0106
     13 C           6.3580   -0.2622    0.0000 C.ar    1  UNL1        0.1358
     14 C           9.0343    0.2622    0.0000 C.ar    1  UNL1        0.1358
     15 C           4.5981   -0.2275    0.0000 C.ar    1  UNL1        0.1387
     16 C          10.7942    0.2275    0.0000 C.ar    1  UNL1        0.1387
     17 C           7.2641    1.2933    0.0000 C.ar    1  UNL1       -0.0498
     18 C           8.1282   -1.2933    0.0000 C.ar    1  UNL1       -0.0498
     19 C           3.7320    0.2725    0.0000 C.ar    1  UNL1        0.0621
     20 C          11.6603   -0.2725    0.0000 C.ar    1  UNL1        0.0621
     21 C           3.7320    1.2725    0.0000 C.ar    1  UNL1       -0.0359
     22 C          11.6603   -1.2725    0.0000 C.ar    1  UNL1       -0.0359
     23 C           6.3580    1.8071    0.0000 C.ar    1  UNL1       -0.0531
     24 C           9.0343   -1.8071    0.0000 C.ar    1  UNL1       -0.0531
     25 C           4.5981    1.7725    0.0000 C.ar    1  UNL1       -0.0501
     26 C          10.7942   -1.7725    0.0000 C.ar    1  UNL1       -0.0501
     27 C           2.8660    1.7725    0.0000 C.3     1  UNL1       -0.0389
     28 C          12.5263   -1.7725    0.0000 C.3     1  UNL1       -0.0389
     29 C           2.8660   -0.2275    0.0000 C.2     1  UNL1        0.1639
     30 C          12.5263    0.2275    0.0000 C.2     1  UNL1        0.1639
     31 C           2.0000    0.2725    0.0000 C.3     1  UNL1       -0.0013
     32 C          13.3923   -0.2725    0.0000 C.3     1  UNL1       -0.0013
     33 H           7.7998    1.6054    0.0000 H       1  UNL1        0.0625
     34 H           7.5925   -1.6054    0.0000 H       1  UNL1        0.0625
     35 H           6.3509    2.4271    0.0000 H       1  UNL1        0.0624
     36 H           9.0414   -2.4271    0.0000 H       1  UNL1        0.0624
     37 H           4.5981    2.3925    0.0000 H       1  UNL1        0.0626
     38 H          10.7942   -2.3925    0.0000 H       1  UNL1        0.0626
     39 H           3.1760    2.3094    0.0000 H       1  UNL1        0.0278
     40 H           2.3291    2.0825    0.0000 H       1  UNL1        0.0278
     41 H           2.5560    1.2356    0.0000 H       1  UNL1        0.0278
     42 H          12.2163   -2.3094    0.0000 H       1  UNL1        0.0278
     43 H          13.0632   -2.0825    0.0000 H       1  UNL1        0.0278
     44 H          12.8363   -1.2356    0.0000 H       1  UNL1        0.0278
     45 H           5.8060   -1.5659    0.0000 H       1  UNL1        0.2922
     46 H           9.5863    1.5659    0.0000 H       1  UNL1        0.2922
     47 H           4.0611   -1.5375    0.0000 H       1  UNL1        0.2922
     48 H          11.3312    1.5375    0.0000 H       1  UNL1        0.2922
     49 H           2.3100    0.8094    0.0000 H       1  UNL1        0.0309
     50 H           1.4631    0.5825    0.0000 H       1  UNL1        0.0309
     51 H           1.6900   -0.2645    0.0000 H       1  UNL1        0.0309
     52 H          13.0823   -0.8094    0.0000 H       1  UNL1        0.0309
     53 H          13.9292   -0.5825    0.0000 H       1  UNL1        0.0309
     54 H          13.7023    0.2645    0.0000 H       1  UNL1        0.0309
@<TRIPOS>BOND
     1     1    13    1
     2     1    45    1
     3     2    14    1
     4     2    46    1
     5     3    15    1
     6     3    47    1
     7     4    16    1
     8     4    48    1
     9     5    29    2
    10     6    30    2
    11     7     8    1
    12     7    13   ar
    13     7    17   ar
    14     8    14   ar
    15     8    18   ar
    16     9    11   ar
    17     9    13   ar
    18     9    15   ar
    19    10    12   ar
    20    10    14   ar
    21    10    16   ar
    22    11    23   ar
    23    11    25   ar
    24    12    24   ar
    25    12    26   ar
    26    15    19   ar
    27    16    20   ar
    28    17    23   ar
    29    17    33    1
    30    18    24   ar
    31    18    34    1
    32    19    21   ar
    33    19    29    1
    34    20    22   ar
    35    20    30    1
    36    21    25   ar
    37    21    27    1
    38    22    26   ar
    39    22    28    1
    40    23    35    1
    41    24    36    1
    42    25    37    1
    43    26    38    1
    44    27    39    1
    45    27    40    1
    46    27    41    1
    47    28    42    1
    48    28    43    1
    49    28    44    1
    50    29    31    1
    51    30    32    1
    52    31    49    1
    53    31    50    1
    54    31    51    1
    55    32    52    1
    56    32    53    1
    57    32    54    1
