@<TRIPOS>MOLECULE
IMPHY013214
 54 57 0 0 0
SMALL
GASTEIGER

@<TRIPOS>ATOM
      1 O          10.4192    3.1047    0.0000 O.3     1  UNL1       -0.4816
      2 O           6.0290   -0.4989    0.0000 O.2     1  UNL1       -0.4616
      3 O           6.0174    2.5704    0.0000 O.2     1  UNL1       -0.2863
      4 O           4.2690    2.5358    0.0000 O.3     1  UNL1       -0.5058
      5 O           2.5369   -0.4642    0.0000 O.3     1  UNL1       -0.5062
      6 C          11.3272    2.5944    0.0000 C.3     1  UNL1        0.1235
      7 C           9.5312    1.5666    0.0000 C.ar    1  UNL1        0.0171
      8 C           9.5273    2.5666    0.0000 C.ar    1  UNL1        0.1289
      9 C          11.3312    1.5527    0.0000 C.2     1  UNL1       -0.0409
     10 C           7.7991    1.5599    0.0000 C.ar    1  UNL1       -0.0105
     11 C          12.3272    2.6021    0.0000 C.3     1  UNL1       -0.0215
     12 C          11.8205    3.4642    0.0000 C.3     1  UNL1       -0.0215
     13 C          10.4271    1.0354    0.0000 C.2     1  UNL1       -0.0513
     14 C           6.9350    1.0566    0.0000 C.ar    1  UNL1        0.0644
     15 C           8.6671    1.0633    0.0000 C.ar    1  UNL1       -0.0432
     16 C           5.1350    1.0358    0.0000 C.ar    1  UNL1        0.1063
     17 C           5.1350    0.0358    0.0000 C.ar    1  UNL1        0.1489
     18 C           4.2690   -0.4642    0.0000 C.ar    1  UNL1        0.0408
     19 C           8.6594    3.0633    0.0000 C.ar    1  UNL1       -0.0187
     20 C           6.0290    1.5704    0.0000 C.ar    1  UNL1        0.2037
     21 C           7.7953    2.5599    0.0000 C.ar    1  UNL1       -0.0503
     22 C           4.2690   -1.4642    0.0000 C.3     1  UNL1       -0.0023
     23 C           4.2690    1.5358    0.0000 C.ar    1  UNL1        0.1347
     24 C           6.9350    0.0150    0.0000 C.ar    1  UNL1        0.1039
     25 C           3.4030    0.0358    0.0000 C.ar    1  UNL1        0.1273
     26 C           3.4030    1.0358    0.0000 C.ar    1  UNL1        0.0225
     27 C           3.4030   -1.9642    0.0000 C.2     1  UNL1       -0.0807
     28 C           3.4030   -2.9642    0.0000 C.2     1  UNL1       -0.0793
     29 C           2.5369   -3.4642    0.0000 C.3     1  UNL1       -0.0440
     30 C           4.2690   -3.4642    0.0000 C.3     1  UNL1       -0.0440
     31 H          11.8682    1.2427    0.0000 H       1  UNL1        0.0611
     32 H          12.3320    1.9821    0.0000 H       1  UNL1        0.0271
     33 H          12.9472    2.6068    0.0000 H       1  UNL1        0.0271
     34 H          12.3224    3.2220    0.0000 H       1  UNL1        0.0271
     35 H          12.3598    3.1584    0.0000 H       1  UNL1        0.0271
     36 H          12.1264    4.0035    0.0000 H       1  UNL1        0.0271
     37 H          11.2812    3.7701    0.0000 H       1  UNL1        0.0271
     38 H          10.4224    0.4154    0.0000 H       1  UNL1        0.0623
     39 H           8.6694    0.4433    0.0000 H       1  UNL1        0.0631
     40 H           8.6570    3.6833    0.0000 H       1  UNL1        0.0654
     41 H           7.2571    2.8679    0.0000 H       1  UNL1        0.0625
     42 H           4.4810   -2.0468    0.0000 H       1  UNL1        0.0358
     43 H           4.8796   -1.3566    0.0000 H       1  UNL1        0.0358
     44 H           7.4708   -0.2971    0.0000 H       1  UNL1        0.1037
     45 H           2.8660    1.3458    0.0000 H       1  UNL1        0.0691
     46 H           2.8660   -1.6542    0.0000 H       1  UNL1        0.0575
     47 H           3.7320    2.8458    0.0000 H       1  UNL1        0.2922
     48 H           2.0000   -0.1542    0.0000 H       1  UNL1        0.2921
     49 H           2.2269   -2.9273    0.0000 H       1  UNL1        0.0274
     50 H           2.0000   -3.7742    0.0000 H       1  UNL1        0.0274
     51 H           2.8469   -4.0012    0.0000 H       1  UNL1        0.0274
     52 H           3.9590   -4.0012    0.0000 H       1  UNL1        0.0274
     53 H           4.8059   -3.7742    0.0000 H       1  UNL1        0.0274
     54 H           4.5790   -2.9273    0.0000 H       1  UNL1        0.0274
@<TRIPOS>BOND
     1     1     6    1
     2     1     8    1
     3     2    17   ar
     4     2    24   ar
     5     3    20    2
     6     4    23    1
     7     4    47    1
     8     5    25    1
     9     5    48    1
    10     6     9    1
    11     6    11    1
    12     6    12    1
    13     7     8   ar
    14     7    13    1
    15     7    15   ar
    16     8    19   ar
    17     9    13    2
    18     9    31    1
    19    10    14    1
    20    10    15   ar
    21    10    21   ar
    22    11    32    1
    23    11    33    1
    24    11    34    1
    25    12    35    1
    26    12    36    1
    27    12    37    1
    28    13    38    1
    29    14    20   ar
    30    14    24   ar
    31    15    39    1
    32    16    17   ar
    33    16    20   ar
    34    16    23   ar
    35    17    18   ar
    36    18    22    1
    37    18    25   ar
    38    19    21   ar
    39    19    40    1
    40    21    41    1
    41    22    27    1
    42    22    42    1
    43    22    43    1
    44    23    26   ar
    45    24    44    1
    46    25    26   ar
    47    26    45    1
    48    27    28    2
    49    27    46    1
    50    28    29    1
    51    28    30    1
    52    29    49    1
    53    29    50    1
    54    29    51    1
    55    30    52    1
    56    30    53    1
    57    30    54    1
