@<TRIPOS>MOLECULE
IMPHY009295
 34 35 0 0 0
SMALL
GASTEIGER

@<TRIPOS>ATOM
      1 O           6.0682   -2.7927    0.0000 O.3     1  UNL1       -0.4866
      2 O           2.5381   -2.8168    0.0000 O.3     1  UNL1       -0.5066
      3 O           6.9343    0.7073    0.0000 O.2     1  UNL1       -0.2915
      4 O           9.5323    2.2073    0.0000 O.3     1  UNL1       -0.4803
      5 O          10.3984   -1.2927    0.0000 O.3     1  UNL1       -0.4775
      6 O           7.8003    2.2073    0.0000 O.2     1  UNL1       -0.2505
      7 O           9.5323    0.2073    0.0000 O.2     1  UNL1       -0.2458
      8 C           6.9343   -1.2927    0.0000 C.2     1  UNL1        0.0010
      9 C           6.9343   -2.2927    0.0000 C.3     1  UNL1        0.1153
     10 C           5.2022   -1.2927    0.0000 C.ar    1  UNL1        0.0173
     11 C           6.0682   -0.7927    0.0000 C.2     1  UNL1       -0.0440
     12 C           5.2022   -2.2927    0.0000 C.ar    1  UNL1        0.1316
     13 C           7.8003   -0.7927    0.0000 C.2     1  UNL1        0.0311
     14 C           4.3083   -0.7580    0.0000 C.ar    1  UNL1       -0.0476
     15 C           4.3083   -2.8273    0.0000 C.ar    1  UNL1        0.0221
     16 C           7.8003    0.2073    0.0000 C.2     1  UNL1        0.1744
     17 C           3.4022   -2.3135    0.0000 C.ar    1  UNL1        0.1204
     18 C           3.4022   -1.2718    0.0000 C.ar    1  UNL1       -0.0194
     19 C           8.6663   -1.2927    0.0000 C.2     1  UNL1        0.0332
     20 C           8.6663    0.7073    0.0000 C.3     1  UNL1        0.1077
     21 C           8.6663    1.7073    0.0000 C.2     1  UNL1        0.3123
     22 C           9.5323   -0.7927    0.0000 C.2     1  UNL1        0.3302
     23 H           7.1463   -2.8753    0.0000 H       1  UNL1        0.0748
     24 H           7.5449   -2.1850    0.0000 H       1  UNL1        0.0748
     25 H           6.0682   -0.1727    0.0000 H       1  UNL1        0.0629
     26 H           4.3154   -0.1380    0.0000 H       1  UNL1        0.0626
     27 H           4.3154   -3.4473    0.0000 H       1  UNL1        0.0691
     28 H           2.8665   -0.9598    0.0000 H       1  UNL1        0.0654
     29 H           8.6663   -1.9127    0.0000 H       1  UNL1        0.0696
     30 H           8.8784    0.1247    0.0000 H       1  UNL1        0.0459
     31 H           9.2769    0.8150    0.0000 H       1  UNL1        0.0459
     32 H           2.0000   -2.5089    0.0000 H       1  UNL1        0.2921
     33 H           9.5323    2.8273    0.0000 H       1  UNL1        0.2951
     34 H          10.9353   -0.9827    0.0000 H       1  UNL1        0.2954
@<TRIPOS>BOND
     1     1     9    1
     2     1    12    1
     3     2    17    1
     4     2    32    1
     5     3    16    2
     6     4    21    1
     7     4    33    1
     8     5    22    1
     9     5    34    1
    10     6    21    2
    11     7    22    2
    12     8     9    1
    13     8    11    2
    14     8    13    1
    15     9    23    1
    16     9    24    1
    17    10    11    1
    18    10    12   ar
    19    10    14   ar
    20    11    25    1
    21    12    15   ar
    22    13    16    1
    23    13    19    2
    24    14    18   ar
    25    14    26    1
    26    15    17   ar
    27    15    27    1
    28    16    20    1
    29    17    18   ar
    30    18    28    1
    31    19    22    1
    32    19    29    1
    33    20    21    1
    34    20    30    1
    35    20    31    1
