@<TRIPOS>MOLECULE
IMPHY007653
 152 161 0 0 0
SMALL
GASTEIGER

@<TRIPOS>ATOM
      1 O          14.3523    6.0022    0.0000 O.3     1  UNL1       -0.3448
      2 O          12.5799    6.8970    0.0000 O.3     1  UNL1       -0.3480
      3 O          12.9292   -2.2419    0.0000 O.3     1  UNL1       -0.3451
      4 O          11.1972   -2.2419    0.0000 O.3     1  UNL1       -0.3405
      5 O          12.9292   -4.2419    0.0000 O.3     1  UNL1       -0.3841
      6 O          11.1972   -5.2419    0.0000 O.3     1  UNL1       -0.3864
      7 O           9.4651   -4.2419    0.0000 O.3     1  UNL1       -0.3401
      8 O           9.4651   -1.2419    0.0000 O.3     1  UNL1       -0.3924
      9 O           8.5991   -2.7419    0.0000 O.3     1  UNL1       -0.3405
     10 O           7.7331   -5.2419    0.0000 O.3     1  UNL1       -0.3377
     11 O           6.0010   -4.2419    0.0000 O.3     1  UNL1       -0.3401
     12 O           6.0010   -2.2419    0.0000 O.3     1  UNL1       -0.3865
     13 O           6.4062   -6.3552    0.0000 O.3     1  UNL1       -0.3405
     14 O           6.8671   -0.7419    0.0000 O.3     1  UNL1       -0.3924
     15 O           5.1350   -2.7419    0.0000 O.3     1  UNL1       -0.3461
     16 O           9.0187   -6.7739    0.0000 O.3     1  UNL1       -0.3841
     17 O           8.3347   -8.6534    0.0000 O.3     1  UNL1       -0.3864
     18 O           4.2690   -5.2419    0.0000 O.3     1  UNL1       -0.3841
     19 O           6.3650   -9.0006    0.0000 O.3     1  UNL1       -0.3865
     20 O           2.5369   -4.2419    0.0000 O.3     1  UNL1       -0.3864
     21 O           2.5369   -2.2419    0.0000 O.3     1  UNL1       -0.3869
     22 O           4.7374   -8.4082    0.0000 O.3     1  UNL1       -0.3924
     23 C          12.9585    3.9550    0.0000 C.3     1  UNL1       -0.0233
     24 C          13.8264    3.4583    0.0000 C.3     1  UNL1       -0.0295
     25 C          13.1640    4.9276    0.0000 C.3     1  UNL1       -0.0015
     26 C          13.8303    2.4583    0.0000 C.3     1  UNL1       -0.0306
     27 C          14.1523    5.0345    0.0000 C.3     1  UNL1        0.0660
     28 C          12.9662    1.9550    0.0000 C.3     1  UNL1       -0.0285
     29 C          14.5609    4.1282    0.0000 C.3     1  UNL1       -0.0226
     30 C          12.0944    3.4516    0.0000 C.3     1  UNL1       -0.0467
     31 C          12.7617    5.8302    0.0000 C.3     1  UNL1        0.0160
     32 C          12.0983    2.4517    0.0000 C.3     1  UNL1       -0.0486
     33 C          12.9542    0.9134    0.0000 C.3     1  UNL1       -0.0078
     34 C          13.4946    6.4930    0.0000 C.3     1  UNL1        0.1732
     35 C          12.0906    4.4516    0.0000 C.3     1  UNL1       -0.0590
     36 C          14.7422    1.9550    0.0000 C.3     1  UNL1       -0.0311
     37 C          13.8542    0.3891    0.0000 C.2     1  UNL1       -0.0648
     38 C          12.0043    0.3891    0.0000 C.3     1  UNL1       -0.0413
     39 C          11.7833    6.0369    0.0000 C.3     1  UNL1       -0.0572
     40 C          14.3019    7.0832    0.0000 C.3     1  UNL1        0.0020
     41 C          14.7543    0.9134    0.0000 C.2     1  UNL1       -0.0839
     42 C          12.0901    1.4168    0.0000 C.3     1  UNL1       -0.0556
     43 C          13.8668   -0.6958    0.0000 C.3     1  UNL1       -0.0047
     44 C          11.9917   -0.6958    0.0000 C.3     1  UNL1       -0.0254
     45 C          12.9292   -1.2419    0.0000 C.3     1  UNL1        0.0655
     46 C          14.1944    8.0774    0.0000 C.3     1  UNL1       -0.0435
     47 C          13.2796    8.4814    0.0000 C.3     1  UNL1       -0.0201
     48 C          12.4724    7.8912    0.0000 C.3     1  UNL1        0.0535
     49 C          13.1721    9.4756    0.0000 C.3     1  UNL1       -0.0603
     50 C          12.0632   -2.7419    0.0000 C.3     1  UNL1        0.1882
     51 C          12.0632   -3.7419    0.0000 C.3     1  UNL1        0.1341
     52 C          11.1972   -4.2419    0.0000 C.3     1  UNL1        0.1144
     53 C          10.3312   -2.7419    0.0000 C.3     1  UNL1        0.1134
     54 C          10.3312   -3.7419    0.0000 C.3     1  UNL1        0.1184
     55 C           9.4651   -2.2419    0.0000 C.3     1  UNL1        0.0730
     56 C           8.5991   -3.7419    0.0000 C.3     1  UNL1        0.1888
     57 C           7.7331   -4.2419    0.0000 C.3     1  UNL1        0.1410
     58 C           6.8671   -3.7419    0.0000 C.3     1  UNL1        0.1209
     59 C           7.7331   -2.2419    0.0000 C.3     1  UNL1        0.1130
     60 C           6.8671   -2.7419    0.0000 C.3     1  UNL1        0.1123
     61 C           7.7331   -1.2419    0.0000 C.3     1  UNL1        0.0730
     62 C           7.3910   -6.1816    0.0000 C.3     1  UNL1        0.1885
     63 C           5.1350   -3.7419    0.0000 C.3     1  UNL1        0.1880
     64 C           8.0339   -6.9476    0.0000 C.3     1  UNL1        0.1341
     65 C           7.6918   -7.8873    0.0000 C.3     1  UNL1        0.1141
     66 C           4.2690   -4.2419    0.0000 C.3     1  UNL1        0.1341
     67 C           6.0642   -7.2949    0.0000 C.3     1  UNL1        0.1130
     68 C           6.7070   -8.0610    0.0000 C.3     1  UNL1        0.1119
     69 C           3.4030   -3.7419    0.0000 C.3     1  UNL1        0.1137
     70 C           3.4030   -2.7419    0.0000 C.3     1  UNL1        0.1069
     71 C           4.2690   -2.2419    0.0000 C.3     1  UNL1        0.0792
     72 C           5.0794   -7.4685    0.0000 C.3     1  UNL1        0.0730
     73 H          14.6047    3.1166    0.0000 H       1  UNL1        0.0310
     74 H          12.3187    4.8380    0.0000 H       1  UNL1        0.0335
     75 H          14.5615    2.8918    0.0000 H       1  UNL1        0.0310
     76 H          14.9972    5.1277    0.0000 H       1  UNL1        0.0600
     77 H          13.7007    1.5272    0.0000 H       1  UNL1        0.0312
     78 H          14.9283    3.6288    0.0000 H       1  UNL1        0.0293
     79 H          15.0962    4.4411    0.0000 H       1  UNL1        0.0293
     80 H          11.8801    4.0334    0.0000 H       1  UNL1        0.0271
     81 H          11.4842    3.3416    0.0000 H       1  UNL1        0.0271
     82 H          12.3719    5.3480    0.0000 H       1  UNL1        0.0354
     83 H          11.4873    2.5570    0.0000 H       1  UNL1        0.0268
     84 H          11.8885    1.8682    0.0000 H       1  UNL1        0.0268
     85 H          12.3985    4.9898    0.0000 H       1  UNL1        0.0235
     86 H          11.5524    4.7596    0.0000 H       1  UNL1        0.0235
     87 H          11.7826    3.9135    0.0000 H       1  UNL1        0.0235
     88 H          15.3543    1.8560    0.0000 H       1  UNL1        0.0310
     89 H          14.9445    2.5411    0.0000 H       1  UNL1        0.0310
     90 H          11.8020    0.9752    0.0000 H       1  UNL1        0.0274
     91 H          11.3922    0.2901    0.0000 H       1  UNL1        0.0274
     92 H          11.9114    6.6435    0.0000 H       1  UNL1        0.0234
     93 H          11.1766    6.1650    0.0000 H       1  UNL1        0.0234
     94 H          11.6551    5.4303    0.0000 H       1  UNL1        0.0234
     95 H          14.5753    6.5268    0.0000 H       1  UNL1        0.0317
     96 H          14.8974    7.2559    0.0000 H       1  UNL1        0.0317
     97 H          15.2936    0.6076    0.0000 H       1  UNL1        0.0572
     98 H          12.4021    1.9525    0.0000 H       1  UNL1        0.0238
     99 H          11.5543    1.7288    0.0000 H       1  UNL1        0.0238
    100 H          11.7780    0.8810    0.0000 H       1  UNL1        0.0238
    101 H          14.0826   -1.2770    0.0000 H       1  UNL1        0.0335
    102 H          14.4764   -0.5826    0.0000 H       1  UNL1        0.0335
    103 H          11.3821   -0.5826    0.0000 H       1  UNL1        0.0290
    104 H          11.7759   -1.2770    0.0000 H       1  UNL1        0.0290
    105 H          12.3917   -1.5508    0.0000 H       1  UNL1        0.0600
    106 H          14.8130    8.0360    0.0000 H       1  UNL1        0.0270
    107 H          14.3426    8.6794    0.0000 H       1  UNL1        0.0270
    108 H          13.7801    8.8473    0.0000 H       1  UNL1        0.0320
    109 H          12.1989    8.4476    0.0000 H       1  UNL1        0.0563
    110 H          11.8769    7.7185    0.0000 H       1  UNL1        0.0563
    111 H          13.7885    9.5422    0.0000 H       1  UNL1        0.0233
    112 H          13.1055   10.0920    0.0000 H       1  UNL1        0.0233
    113 H          12.5557    9.4090    0.0000 H       1  UNL1        0.0233
    114 H          12.6002   -3.0519    0.0000 H       1  UNL1        0.0937
    115 H          12.0632   -4.3619    0.0000 H       1  UNL1        0.0671
    116 H          10.6603   -4.5519    0.0000 H       1  UNL1        0.0648
    117 H          10.3312   -2.1219    0.0000 H       1  UNL1        0.0647
    118 H           9.7942   -3.4319    0.0000 H       1  UNL1        0.0651
    119 H          13.4662   -3.9319    0.0000 H       1  UNL1        0.2101
    120 H           8.8546   -2.1342    0.0000 H       1  UNL1        0.0584
    121 H           9.2531   -2.8245    0.0000 H       1  UNL1        0.0584
    122 H          11.7341   -5.5519    0.0000 H       1  UNL1        0.2100
    123 H           8.5991   -4.3619    0.0000 H       1  UNL1        0.0938
    124 H           8.9282   -0.9319    0.0000 H       1  UNL1        0.2095
    125 H           7.1962   -4.5519    0.0000 H       1  UNL1        0.0675
    126 H           6.3301   -3.4319    0.0000 H       1  UNL1        0.0651
    127 H           8.2700   -1.9319    0.0000 H       1  UNL1        0.0647
    128 H           6.8671   -2.1219    0.0000 H       1  UNL1        0.0647
    129 H           8.3437   -1.3496    0.0000 H       1  UNL1        0.0584
    130 H           7.9451   -0.6593    0.0000 H       1  UNL1        0.0584
    131 H           6.9925   -5.7066    0.0000 H       1  UNL1        0.0938
    132 H           6.0010   -1.6219    0.0000 H       1  UNL1        0.2100
    133 H           5.1350   -4.3619    0.0000 H       1  UNL1        0.0937
    134 H           8.4324   -7.4226    0.0000 H       1  UNL1        0.0671
    135 H           7.4798   -8.4699    0.0000 H       1  UNL1        0.0648
    136 H           3.7320   -4.5519    0.0000 H       1  UNL1        0.0671
    137 H           5.6656   -6.8199    0.0000 H       1  UNL1        0.0647
    138 H           6.0964   -8.1686    0.0000 H       1  UNL1        0.0647
    139 H           6.8671   -0.1219    0.0000 H       1  UNL1        0.2095
    140 H           2.8660   -3.4319    0.0000 H       1  UNL1        0.0647
    141 H           3.4030   -2.1219    0.0000 H       1  UNL1        0.0643
    142 H           4.6675   -1.7669    0.0000 H       1  UNL1        0.0587
    143 H           3.8705   -1.7669    0.0000 H       1  UNL1        0.0587
    144 H           9.4173   -7.2489    0.0000 H       1  UNL1        0.2101
    145 H           5.0794   -6.8485    0.0000 H       1  UNL1        0.0584
    146 H           4.4688   -7.3608    0.0000 H       1  UNL1        0.0584
    147 H           8.9453   -8.5457    0.0000 H       1  UNL1        0.2100
    148 H           3.7320   -5.5519    0.0000 H       1  UNL1        0.2101
    149 H           6.7635   -9.4756    0.0000 H       1  UNL1        0.2100
    150 H           2.0000   -3.9319    0.0000 H       1  UNL1        0.2100
    151 H           2.5369   -1.6219    0.0000 H       1  UNL1        0.2100
    152 H           4.1268   -8.5158    0.0000 H       1  UNL1        0.2095
@<TRIPOS>BOND
     1     1    27    1
     2    34     1    1
     3     2    34    1
     4     2    48    1
     5    45     3    1
     6    50     3    1
     7     4    50    1
     8     4    53    1
     9    51     5    1
    10     5   119    1
    11    52     6    1
    12     6   122    1
    13    54     7    1
    14    56     7    1
    15     8    55    1
    16     8   124    1
    17     9    56    1
    18     9    59    1
    19    57    10    1
    20    62    10    1
    21    58    11    1
    22    63    11    1
    23    60    12    1
    24    12   132    1
    25    13    62    1
    26    13    67    1
    27    14    61    1
    28    14   139    1
    29    15    63    1
    30    15    71    1
    31    64    16    1
    32    16   144    1
    33    65    17    1
    34    17   147    1
    35    66    18    1
    36    18   148    1
    37    68    19    1
    38    19   149    1
    39    69    20    1
    40    20   150    1
    41    70    21    1
    42    21   151    1
    43    22    72    1
    44    22   152    1
    45    23    24    1
    46    23    25    1
    47    23    30    1
    48    23    35    1
    49    24    26    1
    50    24    29    1
    51    24    73    1
    52    25    27    1
    53    25    31    1
    54    25    74    1
    55    26    28    1
    56    26    36    1
    57    26    75    1
    58    27    29    1
    59    27    76    1
    60    28    32    1
    61    28    33    1
    62    28    77    1
    63    29    78    1
    64    29    79    1
    65    30    32    1
    66    30    80    1
    67    30    81    1
    68    31    34    1
    69    31    39    1
    70    31    82    1
    71    32    83    1
    72    32    84    1
    73    33    37    1
    74    33    38    1
    75    33    42    1
    76    34    40    1
    77    35    85    1
    78    35    86    1
    79    35    87    1
    80    36    41    1
    81    36    88    1
    82    36    89    1
    83    37    41    2
    84    37    43    1
    85    38    44    1
    86    38    90    1
    87    38    91    1
    88    39    92    1
    89    39    93    1
    90    39    94    1
    91    40    46    1
    92    40    95    1
    93    40    96    1
    94    41    97    1
    95    42    98    1
    96    42    99    1
    97    42   100    1
    98    43    45    1
    99    43   101    1
   100    43   102    1
   101    44    45    1
   102    44   103    1
   103    44   104    1
   104    45   105    1
   105    46    47    1
   106    46   106    1
   107    46   107    1
   108    47    48    1
   109    47    49    1
   110    47   108    1
   111    48   109    1
   112    48   110    1
   113    49   111    1
   114    49   112    1
   115    49   113    1
   116    50    51    1
   117    50   114    1
   118    51    52    1
   119    51   115    1
   120    52    54    1
   121    52   116    1
   122    53    54    1
   123    53    55    1
   124    53   117    1
   125    54   118    1
   126    55   120    1
   127    55   121    1
   128    56    57    1
   129    56   123    1
   130    57    58    1
   131    57   125    1
   132    58    60    1
   133    58   126    1
   134    59    60    1
   135    59    61    1
   136    59   127    1
   137    60   128    1
   138    61   129    1
   139    61   130    1
   140    62    64    1
   141    62   131    1
   142    63    66    1
   143    63   133    1
   144    64    65    1
   145    64   134    1
   146    65    68    1
   147    65   135    1
   148    66    69    1
   149    66   136    1
   150    67    68    1
   151    67    72    1
   152    67   137    1
   153    68   138    1
   154    69    70    1
   155    69   140    1
   156    70    71    1
   157    70   141    1
   158    71   142    1
   159    71   143    1
   160    72   145    1
   161    72   146    1
