@<TRIPOS>MOLECULE
IMPHY001273
 41 44 0 0 0
SMALL
GASTEIGER

@<TRIPOS>ATOM
      1 O           4.8885    0.7597    0.0000 O.3     1  UNL1       -0.4839
      2 O           7.6534    2.6286    0.0000 O.3     1  UNL1       -0.3917
      3 O           2.8660   -0.2423    0.0000 O.3     1  UNL1       -0.4914
      4 N           7.2255   -2.1451    0.0000 N.3     1  UNL1       -0.3120
      5 C           6.2493   -0.1180    0.0000 C.3     1  UNL1        0.0378
      6 C           5.7341    0.8042    0.0000 C.3     1  UNL1        0.1124
      7 C           7.2748    0.0078    0.0000 C.3     1  UNL1       -0.0375
      8 C           5.4664   -0.7423    0.0000 C.ar    1  UNL1        0.0120
      9 C           7.2255   -0.3408    0.0000 C.3     1  UNL1       -0.0272
     10 C           6.1939    1.6938    0.0000 C.3     1  UNL1        0.0112
     11 C           7.7346    0.8973    0.0000 C.3     1  UNL1       -0.0258
     12 C           7.1942    1.7403    0.0000 C.3     1  UNL1        0.0587
     13 C           4.5992   -0.2416    0.0000 C.ar    1  UNL1        0.1664
     14 C           7.6600   -1.2430    0.0000 C.3     1  UNL1       -0.0029
     15 C           5.4664   -1.7436    0.0000 C.ar    1  UNL1       -0.0261
     16 C           6.2493   -2.3680    0.0000 C.3     1  UNL1        0.0216
     17 C           3.7320   -0.7423    0.0000 C.ar    1  UNL1        0.1618
     18 C           4.5992   -2.2443    0.0000 C.ar    1  UNL1       -0.0534
     19 C           3.7320   -1.7436    0.0000 C.ar    1  UNL1       -0.0160
     20 C           2.0000   -0.7423    0.0000 C.3     1  UNL1        0.0790
     21 H           5.2732    1.5184    0.0000 H       1  UNL1        0.0743
     22 H           7.2266   -0.6104    0.0000 H       1  UNL1        0.0276
     23 H           7.8711   -0.1620    0.0000 H       1  UNL1        0.0276
     24 H           7.8300   -0.2028    0.0000 H       1  UNL1        0.0287
     25 H           7.2255    0.2792    0.0000 H       1  UNL1        0.0287
     26 H           6.2731    2.3087    0.0000 H       1  UNL1        0.0326
     27 H           5.6021    1.8785    0.0000 H       1  UNL1        0.0326
     28 H           8.2276    0.5213    0.0000 H       1  UNL1        0.0290
     29 H           8.1905    1.3174    0.0000 H       1  UNL1        0.0290
     30 H           6.8596    2.2622    0.0000 H       1  UNL1        0.0594
     31 H           8.1447   -1.6295    0.0000 H       1  UNL1        0.0424
     32 H           8.1447   -0.8564    0.0000 H       1  UNL1        0.0424
     33 H           5.7646   -2.7545    0.0000 H       1  UNL1        0.0474
     34 H           6.5183   -2.9266    0.0000 H       1  UNL1        0.0474
     35 H           7.5748   -2.6574    0.0000 H       1  UNL1        0.1222
     36 H           4.5992   -2.8643    0.0000 H       1  UNL1        0.0622
     37 H           8.2728    2.6574    0.0000 H       1  UNL1        0.2098
     38 H           3.1951   -2.0536    0.0000 H       1  UNL1        0.0655
     39 H           1.6900   -0.2053    0.0000 H       1  UNL1        0.0660
     40 H           1.4631   -1.0523    0.0000 H       1  UNL1        0.0660
     41 H           2.3100   -1.2792    0.0000 H       1  UNL1        0.0660
@<TRIPOS>BOND
     1     1     6    1
     2     1    13    1
     3    12     2    1
     4     2    37    1
     5     3    17    1
     6     3    20    1
     7     4    14    1
     8     4    16    1
     9     4    35    1
    10     5     6    1
    11     5     7    1
    12     5     8    1
    13     5     9    1
    14     6    10    1
    15     6    21    1
    16     7    11    1
    17     7    22    1
    18     7    23    1
    19     8    13   ar
    20     8    15   ar
    21     9    14    1
    22     9    24    1
    23     9    25    1
    24    10    12    1
    25    10    26    1
    26    10    27    1
    27    11    12    1
    28    11    28    1
    29    11    29    1
    30    12    30    1
    31    13    17   ar
    32    14    31    1
    33    14    32    1
    34    15    16    1
    35    15    18   ar
    36    16    33    1
    37    16    34    1
    38    17    19   ar
    39    18    19   ar
    40    18    36    1
    41    19    38    1
    42    20    39    1
    43    20    40    1
    44    20    41    1
