@<TRIPOS>MOLECULE
IMPHY016073
 25 24 0 0 0
SMALL
GASTEIGER

@<TRIPOS>ATOM
      1 O           5.4641    0.2500    0.0000 O.3     1  UNL1       -0.4570
      2 O           6.3301   -1.2500    0.0000 O.2     1  UNL1       -0.2453
      3 C           3.7320    0.2500    0.0000 C.2     1  UNL1       -0.0399
      4 C           4.5981   -0.2500    0.0000 C.3     1  UNL1        0.1137
      5 C           3.7320    1.2500    0.0000 C.3     1  UNL1       -0.0406
      6 C           2.8660   -0.2500    0.0000 C.2     1  UNL1       -0.0849
      7 C           2.0000    0.2500    0.0000 C.3     1  UNL1       -0.0465
      8 C           6.3301   -0.2500    0.0000 C.2     1  UNL1        0.3346
      9 C           7.1962    0.2500    0.0000 C.2     1  UNL1        0.0265
     10 C           8.0622   -0.2500    0.0000 C.3     1  UNL1       -0.0335
     11 C           7.1962    1.2500    0.0000 C.2     1  UNL1       -0.0890
     12 H           4.1996   -0.7249    0.0000 H       1  UNL1        0.0745
     13 H           4.9966   -0.7249    0.0000 H       1  UNL1        0.0745
     14 H           4.3520    1.2500    0.0000 H       1  UNL1        0.0275
     15 H           3.7320    1.8700    0.0000 H       1  UNL1        0.0275
     16 H           3.1120    1.2500    0.0000 H       1  UNL1        0.0275
     17 H           2.8660   -0.8700    0.0000 H       1  UNL1        0.0570
     18 H           2.3100    0.7869    0.0000 H       1  UNL1        0.0272
     19 H           1.4631    0.5600    0.0000 H       1  UNL1        0.0272
     20 H           1.6900   -0.2869    0.0000 H       1  UNL1        0.0272
     21 H           7.7522   -0.7869    0.0000 H       1  UNL1        0.0280
     22 H           8.5991   -0.5600    0.0000 H       1  UNL1        0.0280
     23 H           8.3722    0.2869    0.0000 H       1  UNL1        0.0280
     24 H           7.7331    1.5600    0.0000 H       1  UNL1        0.0540
     25 H           6.6592    1.5600    0.0000 H       1  UNL1        0.0540
@<TRIPOS>BOND
     1     1     4    1
     2     1     8    1
     3     2     8    2
     4     3     4    1
     5     3     5    1
     6     3     6    2
     7     4    12    1
     8     4    13    1
     9     5    14    1
    10     5    15    1
    11     5    16    1
    12     6     7    1
    13     6    17    1
    14     7    18    1
    15     7    19    1
    16     7    20    1
    17     8     9    1
    18     9    10    1
    19     9    11    2
    20    10    21    1
    21    10    22    1
    22    10    23    1
    23    11    24    1
    24    11    25    1
