@<TRIPOS>MOLECULE
IMPHY008977
 152 151 0 0 0
SMALL
GASTEIGER

@<TRIPOS>ATOM
      1 O          31.4449    7.9400    0.0000 O.3     1  UNL1       -0.3910
      2 C           6.3301   -7.5600    0.0000 C.3     1  UNL1       -0.0439
      3 C           7.1962   -7.0600    0.0000 C.3     1  UNL1       -0.0505
      4 C           8.0622   -7.5600    0.0000 C.3     1  UNL1       -0.0526
      5 C           9.7942   -7.5600    0.0000 C.3     1  UNL1       -0.0439
      6 C           8.9282   -7.0600    0.0000 C.3     1  UNL1       -0.0505
      7 C           5.4641   -7.0600    0.0000 C.3     1  UNL1       -0.0505
      8 C          10.6603   -7.0600    0.0000 C.3     1  UNL1       -0.0502
      9 C           4.5981   -7.5600    0.0000 C.3     1  UNL1       -0.0526
     10 C           3.7320   -7.0600    0.0000 C.3     1  UNL1       -0.0507
     11 C           6.3301   -8.5600    0.0000 C.3     1  UNL1       -0.0624
     12 C          11.5263   -7.5600    0.0000 C.3     1  UNL1       -0.0491
     13 C           9.7942   -8.5600    0.0000 C.3     1  UNL1       -0.0624
     14 C           2.8660   -7.5600    0.0000 C.3     1  UNL1       -0.0467
     15 C          12.3923   -7.0600    0.0000 C.3     1  UNL1       -0.0320
     16 C           2.0000   -7.0600    0.0000 C.3     1  UNL1       -0.0627
     17 C           2.8660   -8.5600    0.0000 C.3     1  UNL1       -0.0627
     18 C          13.2583   -7.5600    0.0000 C.2     1  UNL1       -0.0765
     19 C          14.1244   -7.0600    0.0000 C.2     1  UNL1       -0.0847
     20 C          13.2583   -8.5600    0.0000 C.3     1  UNL1       -0.0438
     21 C          14.9904   -7.5600    0.0000 C.3     1  UNL1       -0.0308
     22 C          15.8564   -7.0600    0.0000 C.3     1  UNL1       -0.0286
     23 C          16.7224   -7.5600    0.0000 C.2     1  UNL1       -0.0762
     24 C          17.5885   -7.0600    0.0000 C.2     1  UNL1       -0.0847
     25 C          16.7224   -8.5600    0.0000 C.3     1  UNL1       -0.0438
     26 C          17.5885   -6.0600    0.0000 C.3     1  UNL1       -0.0308
     27 C          18.4545   -5.5600    0.0000 C.3     1  UNL1       -0.0286
     28 C          18.4545   -4.5600    0.0000 C.2     1  UNL1       -0.0762
     29 C          19.3205   -4.0600    0.0000 C.2     1  UNL1       -0.0847
     30 C          20.1865   -4.5600    0.0000 C.3     1  UNL1       -0.0308
     31 C          21.0526   -4.0600    0.0000 C.3     1  UNL1       -0.0286
     32 C          17.5885   -4.0600    0.0000 C.3     1  UNL1       -0.0438
     33 C          21.9186   -4.5600    0.0000 C.2     1  UNL1       -0.0762
     34 C          22.7846   -3.0600    0.0000 C.3     1  UNL1       -0.0308
     35 C          23.6506   -2.5600    0.0000 C.3     1  UNL1       -0.0286
     36 C          22.7846   -4.0600    0.0000 C.2     1  UNL1       -0.0847
     37 C          23.6506   -1.5600    0.0000 C.2     1  UNL1       -0.0762
     38 C          25.3827    0.4400    0.0000 C.3     1  UNL1       -0.0286
     39 C          24.5167   -0.0600    0.0000 C.3     1  UNL1       -0.0308
     40 C          24.5167   -1.0600    0.0000 C.2     1  UNL1       -0.0847
     41 C          25.3827    1.4400    0.0000 C.2     1  UNL1       -0.0762
     42 C          26.2487    2.9400    0.0000 C.3     1  UNL1       -0.0308
     43 C          21.9186   -5.5600    0.0000 C.3     1  UNL1       -0.0438
     44 C          27.1147    3.4400    0.0000 C.3     1  UNL1       -0.0286
     45 C          26.2487    1.9400    0.0000 C.2     1  UNL1       -0.0847
     46 C          27.1147    4.4400    0.0000 C.2     1  UNL1       -0.0762
     47 C          22.7846   -1.0600    0.0000 C.3     1  UNL1       -0.0438
     48 C          24.5167    1.9400    0.0000 C.3     1  UNL1       -0.0438
     49 C          27.9808    5.9400    0.0000 C.3     1  UNL1       -0.0308
     50 C          27.9808    4.9400    0.0000 C.2     1  UNL1       -0.0847
     51 C          28.8468    6.4400    0.0000 C.3     1  UNL1       -0.0285
     52 C          26.2487    4.9400    0.0000 C.3     1  UNL1       -0.0438
     53 C          28.8468    7.4400    0.0000 C.2     1  UNL1       -0.0741
     54 C          27.9808    7.9400    0.0000 C.3     1  UNL1       -0.0437
     55 C          29.7128    7.9400    0.0000 C.2     1  UNL1       -0.0600
     56 C          30.5788    7.4400    0.0000 C.3     1  UNL1        0.0626
     57 H           6.8671   -7.8700    0.0000 H       1  UNL1        0.0298
     58 H           7.5947   -6.5850    0.0000 H       1  UNL1        0.0268
     59 H           6.7976   -6.5850    0.0000 H       1  UNL1        0.0268
     60 H           7.6636   -8.0350    0.0000 H       1  UNL1        0.0265
     61 H           8.4607   -8.0350    0.0000 H       1  UNL1        0.0265
     62 H           9.2573   -7.8700    0.0000 H       1  UNL1        0.0298
     63 H           9.3267   -6.5850    0.0000 H       1  UNL1        0.0268
     64 H           8.5297   -6.5850    0.0000 H       1  UNL1        0.0268
     65 H           5.8626   -6.5850    0.0000 H       1  UNL1        0.0268
     66 H           5.0656   -6.5850    0.0000 H       1  UNL1        0.0268
     67 H          11.0588   -6.5850    0.0000 H       1  UNL1        0.0268
     68 H          10.2617   -6.5850    0.0000 H       1  UNL1        0.0268
     69 H           4.1996   -8.0350    0.0000 H       1  UNL1        0.0265
     70 H           4.9966   -8.0350    0.0000 H       1  UNL1        0.0265
     71 H           4.1306   -6.5850    0.0000 H       1  UNL1        0.0268
     72 H           3.3335   -6.5850    0.0000 H       1  UNL1        0.0268
     73 H           5.7101   -8.5600    0.0000 H       1  UNL1        0.0232
     74 H           6.3301   -9.1800    0.0000 H       1  UNL1        0.0232
     75 H           6.9501   -8.5600    0.0000 H       1  UNL1        0.0232
     76 H          11.1278   -8.0350    0.0000 H       1  UNL1        0.0268
     77 H          11.9248   -8.0350    0.0000 H       1  UNL1        0.0268
     78 H           9.1742   -8.5600    0.0000 H       1  UNL1        0.0232
     79 H           9.7942   -9.1800    0.0000 H       1  UNL1        0.0232
     80 H          10.4142   -8.5600    0.0000 H       1  UNL1        0.0232
     81 H           2.8660   -6.9400    0.0000 H       1  UNL1        0.0295
     82 H          12.7908   -6.5850    0.0000 H       1  UNL1        0.0310
     83 H          11.9938   -6.5850    0.0000 H       1  UNL1        0.0310
     84 H           2.2460   -8.5600    0.0000 H       1  UNL1        0.0232
     85 H           2.8660   -9.1800    0.0000 H       1  UNL1        0.0232
     86 H           3.4860   -8.5600    0.0000 H       1  UNL1        0.0232
     87 H           2.3100   -6.5231    0.0000 H       1  UNL1        0.0232
     88 H           1.4631   -6.7500    0.0000 H       1  UNL1        0.0232
     89 H           1.6900   -7.5969    0.0000 H       1  UNL1        0.0232
     90 H          14.1244   -6.4400    0.0000 H       1  UNL1        0.0572
     91 H          12.6383   -8.5600    0.0000 H       1  UNL1        0.0274
     92 H          13.2583   -9.1800    0.0000 H       1  UNL1        0.0274
     93 H          13.8783   -8.5600    0.0000 H       1  UNL1        0.0274
     94 H          14.5919   -8.0350    0.0000 H       1  UNL1        0.0310
     95 H          15.3889   -8.0350    0.0000 H       1  UNL1        0.0310
     96 H          16.2549   -6.5850    0.0000 H       1  UNL1        0.0313
     97 H          15.4579   -6.5850    0.0000 H       1  UNL1        0.0313
     98 H          18.1254   -7.3700    0.0000 H       1  UNL1        0.0572
     99 H          16.1024   -8.5600    0.0000 H       1  UNL1        0.0274
    100 H          16.7224   -9.1800    0.0000 H       1  UNL1        0.0274
    101 H          17.3424   -8.5600    0.0000 H       1  UNL1        0.0274
    102 H          17.3764   -5.4774    0.0000 H       1  UNL1        0.0310
    103 H          16.9779   -6.1677    0.0000 H       1  UNL1        0.0310
    104 H          18.6665   -6.1426    0.0000 H       1  UNL1        0.0313
    105 H          19.0651   -5.4523    0.0000 H       1  UNL1        0.0313
    106 H          19.3205   -3.4400    0.0000 H       1  UNL1        0.0572
    107 H          19.7880   -5.0350    0.0000 H       1  UNL1        0.0310
    108 H          20.5851   -5.0350    0.0000 H       1  UNL1        0.0310
    109 H          21.4511   -3.5850    0.0000 H       1  UNL1        0.0313
    110 H          20.6540   -3.5850    0.0000 H       1  UNL1        0.0313
    111 H          17.8985   -3.5231    0.0000 H       1  UNL1        0.0274
    112 H          17.0515   -3.7500    0.0000 H       1  UNL1        0.0274
    113 H          17.2785   -4.5969    0.0000 H       1  UNL1        0.0274
    114 H          22.5726   -2.4774    0.0000 H       1  UNL1        0.0310
    115 H          22.1740   -3.1677    0.0000 H       1  UNL1        0.0310
    116 H          23.8627   -3.1426    0.0000 H       1  UNL1        0.0313
    117 H          24.2612   -2.4523    0.0000 H       1  UNL1        0.0313
    118 H          23.3215   -4.3700    0.0000 H       1  UNL1        0.0572
    119 H          25.5947   -0.1426    0.0000 H       1  UNL1        0.0313
    120 H          25.9933    0.5477    0.0000 H       1  UNL1        0.0313
    121 H          24.3046    0.5226    0.0000 H       1  UNL1        0.0310
    122 H          23.9061   -0.1677    0.0000 H       1  UNL1        0.0310
    123 H          25.0536   -1.3700    0.0000 H       1  UNL1        0.0572
    124 H          26.0367    3.5226    0.0000 H       1  UNL1        0.0310
    125 H          25.6381    2.8323    0.0000 H       1  UNL1        0.0310
    126 H          21.2986   -5.5600    0.0000 H       1  UNL1        0.0274
    127 H          21.9186   -6.1800    0.0000 H       1  UNL1        0.0274
    128 H          22.5386   -5.5600    0.0000 H       1  UNL1        0.0274
    129 H          27.3268    2.8574    0.0000 H       1  UNL1        0.0313
    130 H          27.7253    3.5477    0.0000 H       1  UNL1        0.0313
    131 H          26.7856    1.6300    0.0000 H       1  UNL1        0.0572
    132 H          23.0946   -0.5231    0.0000 H       1  UNL1        0.0274
    133 H          22.2477   -0.7500    0.0000 H       1  UNL1        0.0274
    134 H          22.4746   -1.5969    0.0000 H       1  UNL1        0.0274
    135 H          24.8267    2.4769    0.0000 H       1  UNL1        0.0274
    136 H          23.9797    2.2500    0.0000 H       1  UNL1        0.0274
    137 H          24.2067    1.4031    0.0000 H       1  UNL1        0.0274
    138 H          27.7687    6.5226    0.0000 H       1  UNL1        0.0310
    139 H          27.3702    5.8323    0.0000 H       1  UNL1        0.0310
    140 H          28.5177    4.6300    0.0000 H       1  UNL1        0.0572
    141 H          29.0588    5.8574    0.0000 H       1  UNL1        0.0313
    142 H          29.4574    6.5477    0.0000 H       1  UNL1        0.0313
    143 H          26.5587    5.4769    0.0000 H       1  UNL1        0.0274
    144 H          25.7118    5.2500    0.0000 H       1  UNL1        0.0274
    145 H          25.9387    4.4031    0.0000 H       1  UNL1        0.0274
    146 H          28.2908    8.4769    0.0000 H       1  UNL1        0.0274
    147 H          27.4438    8.2500    0.0000 H       1  UNL1        0.0274
    148 H          27.6708    7.4031    0.0000 H       1  UNL1        0.0274
    149 H          29.7128    8.5600    0.0000 H       1  UNL1        0.0594
    150 H          30.1803    6.9650    0.0000 H       1  UNL1        0.0601
    151 H          30.9774    6.9650    0.0000 H       1  UNL1        0.0601
    152 H          31.9818    7.6300    0.0000 H       1  UNL1        0.2098
@<TRIPOS>BOND
     1     1    56    1
     2     1   152    1
     3     2     3    1
     4     2     7    1
     5     2    11    1
     6     2    57    1
     7     3     4    1
     8     3    58    1
     9     3    59    1
    10     4     6    1
    11     4    60    1
    12     4    61    1
    13     5     6    1
    14     5     8    1
    15     5    13    1
    16     5    62    1
    17     6    63    1
    18     6    64    1
    19     7     9    1
    20     7    65    1
    21     7    66    1
    22     8    12    1
    23     8    67    1
    24     8    68    1
    25     9    10    1
    26     9    69    1
    27     9    70    1
    28    10    14    1
    29    10    71    1
    30    10    72    1
    31    11    73    1
    32    11    74    1
    33    11    75    1
    34    12    15    1
    35    12    76    1
    36    12    77    1
    37    13    78    1
    38    13    79    1
    39    13    80    1
    40    14    16    1
    41    14    17    1
    42    14    81    1
    43    15    18    1
    44    15    82    1
    45    15    83    1
    46    16    87    1
    47    16    88    1
    48    16    89    1
    49    17    84    1
    50    17    85    1
    51    17    86    1
    52    18    19    2
    53    18    20    1
    54    19    21    1
    55    19    90    1
    56    20    91    1
    57    20    92    1
    58    20    93    1
    59    21    22    1
    60    21    94    1
    61    21    95    1
    62    22    23    1
    63    22    96    1
    64    22    97    1
    65    23    24    2
    66    23    25    1
    67    24    26    1
    68    24    98    1
    69    25    99    1
    70    25   100    1
    71    25   101    1
    72    26    27    1
    73    26   102    1
    74    26   103    1
    75    27    28    1
    76    27   104    1
    77    27   105    1
    78    28    29    2
    79    28    32    1
    80    29    30    1
    81    29   106    1
    82    30    31    1
    83    30   107    1
    84    30   108    1
    85    31    33    1
    86    31   109    1
    87    31   110    1
    88    32   111    1
    89    32   112    1
    90    32   113    1
    91    33    36    2
    92    33    43    1
    93    34    35    1
    94    34    36    1
    95    34   114    1
    96    34   115    1
    97    35    37    1
    98    35   116    1
    99    35   117    1
   100    36   118    1
   101    37    40    2
   102    37    47    1
   103    38    39    1
   104    38    41    1
   105    38   119    1
   106    38   120    1
   107    39    40    1
   108    39   121    1
   109    39   122    1
   110    40   123    1
   111    41    45    2
   112    41    48    1
   113    42    44    1
   114    42    45    1
   115    42   124    1
   116    42   125    1
   117    43   126    1
   118    43   127    1
   119    43   128    1
   120    44    46    1
   121    44   129    1
   122    44   130    1
   123    45   131    1
   124    46    50    2
   125    46    52    1
   126    47   132    1
   127    47   133    1
   128    47   134    1
   129    48   135    1
   130    48   136    1
   131    48   137    1
   132    49    50    1
   133    49    51    1
   134    49   138    1
   135    49   139    1
   136    50   140    1
   137    51    53    1
   138    51   141    1
   139    51   142    1
   140    52   143    1
   141    52   144    1
   142    52   145    1
   143    53    54    1
   144    53    55    2
   145    54   146    1
   146    54   147    1
   147    54   148    1
   148    55    56    1
   149    55   149    1
   150    56   150    1
   151    56   151    1
