@<TRIPOS>MOLECULE
IMPHY000338
 43 44 0 0 0
SMALL
GASTEIGER

@<TRIPOS>ATOM
      1 O           6.1783   -1.3047    0.0000 O.3     1  UNL1       -0.4567
      2 O           4.3660    1.5000    0.0000 O.3     1  UNL1       -0.4608
      3 O           7.7619   -0.5000    0.0000 O.2     1  UNL1       -0.2453
      4 O           2.6340    1.5000    0.0000 O.2     1  UNL1       -0.2512
      5 C           3.5000   -1.0000    0.0000 C.3     1  UNL1       -0.0011
      6 C           4.3660   -1.5000    0.0000 C.3     1  UNL1        0.0263
      7 C           5.2320   -1.0000    0.0000 C.3     1  UNL1        0.1209
      8 C           5.2320    0.0000    0.0000 C.3     1  UNL1        0.0650
      9 C           4.3660    0.5000    0.0000 C.3     1  UNL1        0.1142
     10 C           3.5000    0.0000    0.0000 C.3     1  UNL1       -0.0055
     11 C           6.1783    0.3047    0.0000 C.2     1  UNL1        0.0396
     12 C           3.0000   -1.8660    0.0000 C.3     1  UNL1       -0.0553
     13 C           4.3660   -2.5000    0.0000 C.2     1  UNL1       -0.0723
     14 C           2.5000   -1.0000    0.0000 C.2     1  UNL1       -0.0844
     15 C           6.7619   -0.5000    0.0000 C.2     1  UNL1        0.3354
     16 C           5.2320   -3.0000    0.0000 C.3     1  UNL1       -0.0436
     17 C           6.4889    1.2552    0.0000 C.2     1  UNL1       -0.0882
     18 C           3.5000   -3.0000    0.0000 C.2     1  UNL1       -0.0993
     19 C           2.0000   -0.1340    0.0000 C.2     1  UNL1       -0.1021
     20 C           3.5000    2.0000    0.0000 C.2     1  UNL1        0.3042
     21 C           3.5000    3.0000    0.0000 C.3     1  UNL1        0.0332
     22 H           4.9030   -1.8100    0.0000 H       1  UNL1        0.0390
     23 H           5.3220   -1.8452    0.0000 H       1  UNL1        0.0747
     24 H           5.3220    0.8452    0.0000 H       1  UNL1        0.0423
     25 H           4.9030    0.8100    0.0000 H       1  UNL1        0.0741
     26 H           3.2880    0.5826    0.0000 H       1  UNL1        0.0309
     27 H           2.8894   -0.1077    0.0000 H       1  UNL1        0.0309
     28 H           2.4631   -1.5560    0.0000 H       1  UNL1        0.0238
     29 H           2.6900   -2.4030    0.0000 H       1  UNL1        0.0238
     30 H           3.5369   -2.1760    0.0000 H       1  UNL1        0.0238
     31 H           2.1900   -1.5369    0.0000 H       1  UNL1        0.0572
     32 H           4.9220   -3.5369    0.0000 H       1  UNL1        0.0274
     33 H           5.7690   -3.3100    0.0000 H       1  UNL1        0.0274
     34 H           5.5420   -2.4631    0.0000 H       1  UNL1        0.0274
     35 H           7.0956    1.3831    0.0000 H       1  UNL1        0.0540
     36 H           6.0749    1.7167    0.0000 H       1  UNL1        0.0540
     37 H           2.9631   -2.6900    0.0000 H       1  UNL1        0.0534
     38 H           3.5000   -3.6200    0.0000 H       1  UNL1        0.0534
     39 H           2.3100    0.4030    0.0000 H       1  UNL1        0.0532
     40 H           1.3800   -0.1340    0.0000 H       1  UNL1        0.0532
     41 H           4.1200    3.0000    0.0000 H       1  UNL1        0.0342
     42 H           3.5000    3.6200    0.0000 H       1  UNL1        0.0342
     43 H           2.8800    3.0000    0.0000 H       1  UNL1        0.0342
@<TRIPOS>BOND
     1     1     7    1
     2     1    15    1
     3     9     2    1
     4     2    20    1
     5     3    15    2
     6     4    20    2
     7     5     6    1
     8     5    10    1
     9     5    12    1
    10     5    14    1
    11     6     7    1
    12     6    13    1
    13     6    22    1
    14     7     8    1
    15     7    23    1
    16     8     9    1
    17     8    11    1
    18     8    24    1
    19     9    10    1
    20     9    25    1
    21    10    26    1
    22    10    27    1
    23    11    15    1
    24    11    17    2
    25    12    28    1
    26    12    29    1
    27    12    30    1
    28    13    16    1
    29    13    18    2
    30    14    19    2
    31    14    31    1
    32    16    32    1
    33    16    33    1
    34    16    34    1
    35    17    35    1
    36    17    36    1
    37    18    37    1
    38    18    38    1
    39    19    39    1
    40    19    40    1
    41    20    21    1
    42    21    41    1
    43    21    42    1
    44    21    43    1
