@<TRIPOS>MOLECULE
IMPHY010618
 11 12 0 0 0
SMALL
GASTEIGER

@<TRIPOS>ATOM
      1 C           2.6612   -4.2992    0.0000 C.3     1  UNL1        0.0260
      2 C           2.4806   -2.6612    0.0000 C.3     1  UNL1        0.0029
      3 C           2.6612   -1.9948    0.0000 C.2     1  UNL1       -0.0346
      4 C           1.9948   -0.8426    0.0000 C.3     1  UNL1        0.0255
      5 C           0.0000   -1.9948    0.0000 C.3     1  UNL1        0.0045
      6 C           2.4806   -1.3284    0.0000 C.3     1  UNL1        0.1823
      7 C           1.9948   -3.1470    0.0000 C.2     1  UNL1       -0.0484
      8 C           0.6664   -0.8426    0.0000 C.3     1  UNL1        0.0074
      9 C           0.6664   -3.1470    0.0000 C.3     1  UNL1        0.0205
     10 C           1.3284   -1.9948    0.0000 C.3     1  UNL1        0.0344
     11 O           2.4806    0.0000    0.0000 O.3     1  UNL1       -0.2204
@<TRIPOS>BOND
     1     1     7    1
     2     2    10    1
     3     3     4    1
     4     3     7    2
     5     4     8    1
     6     5     8    1
     7     5     9    1
     8     6    10    1
     9     6    11    1
    10     7     9    1
    11     8    10    1
    12     9    10    1
