@<TRIPOS>MOLECULE
IMPHY006410
 56 55 0 0 0
SMALL
GASTEIGER

@<TRIPOS>ATOM
      1 O           3.7320   -1.8100    0.0000 O.3     1  UNL1       -0.4649
      2 O           4.5981   -3.3100    0.0000 O.2     1  UNL1       -0.2509
      3 C           8.0622   -2.3100    0.0000 C.3     1  UNL1       -0.0530
      4 C           8.9282   -1.8100    0.0000 C.3     1  UNL1       -0.0528
      5 C           7.1962   -1.8100    0.0000 C.3     1  UNL1       -0.0526
      6 C           9.7942   -2.3100    0.0000 C.3     1  UNL1       -0.0496
      7 C           6.3301   -2.3100    0.0000 C.3     1  UNL1       -0.0430
      8 C          10.6603   -1.8100    0.0000 C.3     1  UNL1       -0.0348
      9 C           5.4641   -1.8100    0.0000 C.3     1  UNL1        0.0449
     10 C          11.5263   -2.3100    0.0000 C.2     1  UNL1       -0.0876
     11 C           4.5981   -2.3100    0.0000 C.2     1  UNL1        0.3071
     12 C          12.3923   -1.8100    0.0000 C.2     1  UNL1       -0.0842
     13 C          12.3923   -0.8100    0.0000 C.3     1  UNL1       -0.0165
     14 C          13.2583   -0.3100    0.0000 C.2     1  UNL1       -0.0839
     15 C           2.8660   -2.3100    0.0000 C.3     1  UNL1        0.0896
     16 C          13.2583    0.6900    0.0000 C.2     1  UNL1       -0.0839
     17 C          12.3923    1.1900    0.0000 C.3     1  UNL1       -0.0165
     18 C           2.0000   -1.8100    0.0000 C.3     1  UNL1       -0.0306
     19 C          12.3923    2.1900    0.0000 C.2     1  UNL1       -0.0842
     20 C          11.5263    2.6900    0.0000 C.2     1  UNL1       -0.0879
     21 C          10.6603    2.1900    0.0000 C.3     1  UNL1       -0.0376
     22 C           9.7942    2.6900    0.0000 C.3     1  UNL1       -0.0618
     23 H           7.6636   -2.7849    0.0000 H       1  UNL1        0.0265
     24 H           8.4607   -2.7849    0.0000 H       1  UNL1        0.0265
     25 H           9.3267   -1.3350    0.0000 H       1  UNL1        0.0265
     26 H           8.5297   -1.3350    0.0000 H       1  UNL1        0.0265
     27 H           7.5947   -1.3350    0.0000 H       1  UNL1        0.0265
     28 H           6.7976   -1.3350    0.0000 H       1  UNL1        0.0265
     29 H           9.3957   -2.7849    0.0000 H       1  UNL1        0.0268
     30 H          10.1928   -2.7849    0.0000 H       1  UNL1        0.0268
     31 H           5.9316   -2.7849    0.0000 H       1  UNL1        0.0270
     32 H           6.7287   -2.7849    0.0000 H       1  UNL1        0.0270
     33 H          11.0588   -1.3350    0.0000 H       1  UNL1        0.0307
     34 H          10.2617   -1.3350    0.0000 H       1  UNL1        0.0307
     35 H           5.8626   -1.3350    0.0000 H       1  UNL1        0.0377
     36 H           5.0656   -1.3350    0.0000 H       1  UNL1        0.0377
     37 H          11.5263   -2.9300    0.0000 H       1  UNL1        0.0569
     38 H          12.9292   -2.1200    0.0000 H       1  UNL1        0.0572
     39 H          12.1803   -0.2274    0.0000 H       1  UNL1        0.0350
     40 H          11.7817   -0.9177    0.0000 H       1  UNL1        0.0350
     41 H          13.7953   -0.6200    0.0000 H       1  UNL1        0.0572
     42 H           2.4675   -2.7849    0.0000 H       1  UNL1        0.0694
     43 H           3.2646   -2.7849    0.0000 H       1  UNL1        0.0694
     44 H          13.7953    1.0000    0.0000 H       1  UNL1        0.0572
     45 H          11.7817    1.2977    0.0000 H       1  UNL1        0.0350
     46 H          12.1803    0.6074    0.0000 H       1  UNL1        0.0350
     47 H           2.3100   -1.2731    0.0000 H       1  UNL1        0.0262
     48 H           1.4631   -1.5000    0.0000 H       1  UNL1        0.0262
     49 H           1.6900   -2.3469    0.0000 H       1  UNL1        0.0262
     50 H          12.9292    2.5000    0.0000 H       1  UNL1        0.0572
     51 H          11.5263    3.3100    0.0000 H       1  UNL1        0.0569
     52 H          10.2617    1.7150    0.0000 H       1  UNL1        0.0305
     53 H          11.0588    1.7150    0.0000 H       1  UNL1        0.0305
     54 H          10.1042    3.2269    0.0000 H       1  UNL1        0.0233
     55 H           9.2573    3.0000    0.0000 H       1  UNL1        0.0233
     56 H           9.4842    2.1531    0.0000 H       1  UNL1        0.0233
@<TRIPOS>BOND
     1     1    11    1
     2     1    15    1
     3     2    11    2
     4     3     4    1
     5     3     5    1
     6     3    23    1
     7     3    24    1
     8     4     6    1
     9     4    25    1
    10     4    26    1
    11     5     7    1
    12     5    27    1
    13     5    28    1
    14     6     8    1
    15     6    29    1
    16     6    30    1
    17     7     9    1
    18     7    31    1
    19     7    32    1
    20     8    10    1
    21     8    33    1
    22     8    34    1
    23     9    11    1
    24     9    35    1
    25     9    36    1
    26    10    12    2
    27    10    37    1
    28    12    13    1
    29    12    38    1
    30    13    14    1
    31    13    39    1
    32    13    40    1
    33    14    16    2
    34    14    41    1
    35    15    18    1
    36    15    42    1
    37    15    43    1
    38    16    17    1
    39    16    44    1
    40    17    19    1
    41    17    45    1
    42    17    46    1
    43    18    47    1
    44    18    48    1
    45    18    49    1
    46    19    20    2
    47    19    50    1
    48    20    21    1
    49    20    51    1
    50    21    22    1
    51    21    52    1
    52    21    53    1
    53    22    54    1
    54    22    55    1
    55    22    56    1
