@<TRIPOS>MOLECULE
IMPHY015642
 61 60 0 0 0
SMALL
GASTEIGER

@<TRIPOS>ATOM
      1 O          19.3205    0.5600    0.0000 O.2     1  UNL1       -0.3010
      2 C           9.7942    0.0600    0.0000 C.3     1  UNL1       -0.0531
      3 C          10.6603    0.5600    0.0000 C.3     1  UNL1       -0.0531
      4 C           8.9282    0.5600    0.0000 C.3     1  UNL1       -0.0531
      5 C          11.5263    0.0600    0.0000 C.3     1  UNL1       -0.0531
      6 C           8.0622    0.0600    0.0000 C.3     1  UNL1       -0.0531
      7 C          12.3923    0.5600    0.0000 C.3     1  UNL1       -0.0531
      8 C           7.1962    0.5600    0.0000 C.3     1  UNL1       -0.0531
      9 C          13.2583    0.0600    0.0000 C.3     1  UNL1       -0.0531
     10 C           6.3301    0.0600    0.0000 C.3     1  UNL1       -0.0531
     11 C          14.1244    0.5600    0.0000 C.3     1  UNL1       -0.0531
     12 C           5.4641    0.5600    0.0000 C.3     1  UNL1       -0.0531
     13 C          14.9904    0.0600    0.0000 C.3     1  UNL1       -0.0530
     14 C           4.5981    0.0600    0.0000 C.3     1  UNL1       -0.0531
     15 C          15.8564    0.5600    0.0000 C.3     1  UNL1       -0.0527
     16 C           3.7320    0.5600    0.0000 C.3     1  UNL1       -0.0533
     17 C          16.7224    0.0600    0.0000 C.3     1  UNL1       -0.0466
     18 C           2.8660    0.0600    0.0000 C.3     1  UNL1       -0.0559
     19 C          17.5885    0.5600    0.0000 C.3     1  UNL1        0.0028
     20 C           2.0000    0.5600    0.0000 C.3     1  UNL1       -0.0653
     21 C          18.4545    0.0600    0.0000 C.2     1  UNL1        0.1203
     22 H           9.3957   -0.4149    0.0000 H       1  UNL1        0.0265
     23 H          10.1928   -0.4149    0.0000 H       1  UNL1        0.0265
     24 H          11.0588    1.0350    0.0000 H       1  UNL1        0.0265
     25 H          10.2617    1.0350    0.0000 H       1  UNL1        0.0265
     26 H           9.3267    1.0350    0.0000 H       1  UNL1        0.0265
     27 H           8.5297    1.0350    0.0000 H       1  UNL1        0.0265
     28 H          11.1278   -0.4149    0.0000 H       1  UNL1        0.0265
     29 H          11.9248   -0.4149    0.0000 H       1  UNL1        0.0265
     30 H           7.6636   -0.4149    0.0000 H       1  UNL1        0.0265
     31 H           8.4607   -0.4149    0.0000 H       1  UNL1        0.0265
     32 H          12.7908    1.0350    0.0000 H       1  UNL1        0.0265
     33 H          11.9938    1.0350    0.0000 H       1  UNL1        0.0265
     34 H           7.5947    1.0350    0.0000 H       1  UNL1        0.0265
     35 H           6.7976    1.0350    0.0000 H       1  UNL1        0.0265
     36 H          12.8598   -0.4149    0.0000 H       1  UNL1        0.0265
     37 H          13.6569   -0.4149    0.0000 H       1  UNL1        0.0265
     38 H           5.9316   -0.4149    0.0000 H       1  UNL1        0.0265
     39 H           6.7287   -0.4149    0.0000 H       1  UNL1        0.0265
     40 H          14.5229    1.0350    0.0000 H       1  UNL1        0.0265
     41 H          13.7258    1.0350    0.0000 H       1  UNL1        0.0265
     42 H           5.8626    1.0350    0.0000 H       1  UNL1        0.0265
     43 H           5.0656    1.0350    0.0000 H       1  UNL1        0.0265
     44 H          14.5919   -0.4149    0.0000 H       1  UNL1        0.0265
     45 H          15.3889   -0.4149    0.0000 H       1  UNL1        0.0265
     46 H           4.1996   -0.4149    0.0000 H       1  UNL1        0.0265
     47 H           4.9966   -0.4149    0.0000 H       1  UNL1        0.0265
     48 H          16.2549    1.0350    0.0000 H       1  UNL1        0.0265
     49 H          15.4579    1.0350    0.0000 H       1  UNL1        0.0265
     50 H           4.1306    1.0350    0.0000 H       1  UNL1        0.0265
     51 H           3.3335    1.0350    0.0000 H       1  UNL1        0.0265
     52 H          16.3239   -0.4149    0.0000 H       1  UNL1        0.0269
     53 H          17.1210   -0.4149    0.0000 H       1  UNL1        0.0269
     54 H           2.4675   -0.4149    0.0000 H       1  UNL1        0.0263
     55 H           3.2646   -0.4149    0.0000 H       1  UNL1        0.0263
     56 H          17.9870    1.0350    0.0000 H       1  UNL1        0.0339
     57 H          17.1899    1.0350    0.0000 H       1  UNL1        0.0339
     58 H           2.3100    1.0969    0.0000 H       1  UNL1        0.0230
     59 H           1.4631    0.8700    0.0000 H       1  UNL1        0.0230
     60 H           1.6900    0.0231    0.0000 H       1  UNL1        0.0230
     61 H          18.4545   -0.5600    0.0000 H       1  UNL1        0.1026
@<TRIPOS>BOND
     1     1    21    2
     2     2     3    1
     3     2     4    1
     4     2    22    1
     5     2    23    1
     6     3     5    1
     7     3    24    1
     8     3    25    1
     9     4     6    1
    10     4    26    1
    11     4    27    1
    12     5     7    1
    13     5    28    1
    14     5    29    1
    15     6     8    1
    16     6    30    1
    17     6    31    1
    18     7     9    1
    19     7    32    1
    20     7    33    1
    21     8    10    1
    22     8    34    1
    23     8    35    1
    24     9    11    1
    25     9    36    1
    26     9    37    1
    27    10    12    1
    28    10    38    1
    29    10    39    1
    30    11    13    1
    31    11    40    1
    32    11    41    1
    33    12    14    1
    34    12    42    1
    35    12    43    1
    36    13    15    1
    37    13    44    1
    38    13    45    1
    39    14    16    1
    40    14    46    1
    41    14    47    1
    42    15    17    1
    43    15    48    1
    44    15    49    1
    45    16    18    1
    46    16    50    1
    47    16    51    1
    48    17    19    1
    49    17    52    1
    50    17    53    1
    51    18    20    1
    52    18    54    1
    53    18    55    1
    54    19    21    1
    55    19    56    1
    56    19    57    1
    57    20    58    1
    58    20    59    1
    59    20    60    1
    60    21    61    1
