@<TRIPOS>MOLECULE
IMPHY000518
 48 54 0 0 0
SMALL
GASTEIGER

@<TRIPOS>ATOM
      1 C           5.0225    2.5862    0.0000 C.3     1  UNL1        0.1250
      2 C           5.8182    2.8031    0.0000 C.3     1  UNL1        0.0326
      3 C           4.4345    3.1593    0.0000 C.3     1  UNL1        0.0326
      4 C          -0.0202   -0.8158    0.0000 C.3     1  UNL1        0.0465
      5 C          -0.7110   -1.2338    0.0000 C.3     1  UNL1        0.0064
      6 C           0.7240   -1.2338    0.0000 C.2     1  UNL1       -0.0466
      7 C          -0.7110   -0.4084    0.0000 C.3     1  UNL1        0.0067
      8 C          -0.0202    0.0092    0.0000 C.3     1  UNL1        0.1949
      9 C          -0.7110   -2.0588    0.0000 C.3     1  UNL1        0.0070
     10 C          -1.4403   -0.8158    0.0000 C.3     1  UNL1        0.0029
     11 C           1.4148   -0.8158    0.0000 C.3     1  UNL1        0.0256
     12 C           0.7240   -2.0588    0.0000 C.2     1  UNL1       -0.0346
     13 C           0.7005    0.4273    0.0000 C.3     1  UNL1        0.1996
     14 C          -0.0202   -2.4981    0.0000 C.3     1  UNL1        0.0255
     15 C          -1.4403   -2.4981    0.0000 C.3     1  UNL1        0.0255
     16 C          -2.1569   -1.2338    0.0000 C.3     1  UNL1        0.0297
     17 C           1.4148    0.0092    0.0000 C.3     1  UNL1        0.0495
     18 C           2.2037   -1.0804    0.0000 C.3     1  UNL1        0.0683
     19 C           1.4148   -1.6623    0.0000 C.3     1  UNL1        0.0046
     20 O           0.7005    1.2247    0.0000 O.3     1  UNL1       -0.4496
     21 C          -2.1569   -2.0588    0.0000 C.3     1  UNL1        0.1177
     22 C          -1.1334   -3.1208    0.0000 C.3     1  UNL1        0.0024
     23 C          -1.8007   -3.1208    0.0000 C.3     1  UNL1        0.0024
     24 C           2.2037    0.2504    0.0000 C.3     1  UNL1        0.0617
     25 C           1.4148    0.8113    0.0000 C.3     1  UNL1        0.0044
     26 C           2.6837   -0.4084    0.0000 C.2     1  UNL1        0.1507
     27 C           0.0182    1.6259    0.0000 C.2     1  UNL1        0.3175
     28 O          -2.8754   -2.4981    0.0000 O.3     1  UNL1       -0.3311
     29 C           2.4935    1.1528    0.0000 C.3     1  UNL1        0.0145
     30 O           3.4703   -0.4084    0.0000 O.2     1  UNL1       -0.2961
     31 C          -0.6984    1.1951    0.0000 C.3     1  UNL1        0.1212
     32 O           0.0009    2.4105    0.0000 O.2     1  UNL1       -0.2501
     33 C          -3.5919   -2.1081    0.0000 C.3     1  UNL1        0.2694
     34 C           2.1122    1.8734    0.0000 C.3     1  UNL1        0.0009
     35 C          -4.3127   -2.4981    0.0000 C.3     1  UNL1        0.2406
     36 O          -3.6069   -1.2677    0.0000 O.3     1  UNL1       -0.3257
     37 C          -5.0143   -2.0588    0.0000 C.3     1  UNL1        0.2198
     38 O          -4.2977   -3.1593    0.0000 O.3     1  UNL1       -0.2149
     39 C          -4.2977   -0.8265    0.0000 C.3     1  UNL1        0.1803
     40 C          -5.0270   -1.2850    0.0000 C.3     1  UNL1        0.2143
     41 O          -5.8054   -2.4981    0.0000 O.3     1  UNL1       -0.2174
     42 O          -5.8182   -0.8158    0.0000 O.3     1  UNL1       -0.2176
     43 C           3.3549    1.2317    0.0000 C.3     1  UNL1        0.0676
     44 C           3.5701    2.0393    0.0000 C.2     1  UNL1        0.1798
     45 O           2.9753    2.7290    0.0000 O.2     1  UNL1       -0.2934
     46 O          -0.7369    0.4239    0.0000 O.3     1  UNL1       -0.2189
     47 C           4.4044    2.0423    0.0000 C.3     1  UNL1        0.1964
     48 O           5.1865    1.7789    0.0000 O.3     1  UNL1       -0.3484
@<TRIPOS>BOND
     1     1    48    1
     2     1     2    1
     3     3     1    1
     4     4     5    1
     5     4     6    1
     6     4     7    1
     7     4     8    1
     8     5     7    1
     9     5     9    1
    10     5    10    1
    11     6    11    1
    12     6    12    2
    13     8    13    1
    14     8    46    1
    15     9    14    1
    16     9    15    1
    17    10    16    1
    18    11    17    1
    19    11    18    1
    20    11    19    1
    21    12    14    1
    22    13    20    1
    23    13    17    1
    24    15    21    1
    25    15    22    1
    26    15    23    1
    27    16    21    1
    28    17    24    1
    29    17    25    1
    30    18    26    1
    31    20    27    1
    32    21    28    1
    33    24    29    1
    34    24    26    1
    35    26    30    2
    36    27    31    1
    37    27    32    2
    38    29    34    1
    39    29    43    1
    40    33    28    1
    41    33    35    1
    42    33    36    1
    43    35    37    1
    44    35    38    1
    45    36    39    1
    46    37    40    1
    47    37    41    1
    48    39    40    1
    49    40    42    1
    50    43    44    1
    51    44    45    2
    52    47     1    1
    53    47    44    1
    54    47    48    1
