@<TRIPOS>MOLECULE
IMPHY002686
 56 59 0 0 0
SMALL
GASTEIGER

@<TRIPOS>ATOM
      1 O           9.9953   -2.2829    0.0000 O.3     1  UNL1       -0.4857
      2 O           6.3981   -2.2052    0.0000 O.2     1  UNL1       -0.4542
      3 O           8.1465    0.8294    0.0000 O.3     1  UNL1       -0.5055
      4 O           6.3981    0.7948    0.0000 O.2     1  UNL1       -0.2863
      5 O           2.8680   -0.1810    0.0000 O.3     1  UNL1       -0.4912
      6 O           2.8680   -2.2293    0.0000 O.3     1  UNL1       -0.5032
      7 C          10.9391   -1.7477    0.0000 C.3     1  UNL1        0.1054
      8 C          10.9391   -0.6627    0.0000 C.3     1  UNL1       -0.0092
      9 C           9.9953   -0.1274    0.0000 C.3     1  UNL1       -0.0171
     10 C           9.0641   -0.6844    0.0000 C.ar    1  UNL1        0.0367
     11 C           9.0641   -1.7260    0.0000 C.ar    1  UNL1        0.1314
     12 C          11.9390   -1.7515    0.0000 C.3     1  UNL1       -0.0252
     13 C          11.4357   -2.6156    0.0000 C.3     1  UNL1       -0.0252
     14 C           8.1580   -0.1705    0.0000 C.ar    1  UNL1        0.1379
     15 C           7.2641   -0.7052    0.0000 C.ar    1  UNL1        0.1063
     16 C           8.1580   -2.2398    0.0000 C.ar    1  UNL1        0.0236
     17 C           7.2641   -1.7052    0.0000 C.ar    1  UNL1        0.1463
     18 C           6.3981   -0.2052    0.0000 C.ar    1  UNL1        0.2041
     19 C           5.5320   -0.7052    0.0000 C.ar    1  UNL1        0.0719
     20 C           5.5320   -1.7052    0.0000 C.ar    1  UNL1        0.1432
     21 C           4.6381   -0.1705    0.0000 C.ar    1  UNL1        0.0160
     22 C           4.6497    0.8294    0.0000 C.3     1  UNL1       -0.0049
     23 C           3.7320   -0.6844    0.0000 C.ar    1  UNL1        0.1656
     24 C           4.6381   -2.2398    0.0000 C.ar    1  UNL1        0.0265
     25 C           3.7320   -1.7260    0.0000 C.ar    1  UNL1        0.1623
     26 C           3.7895    1.3394    0.0000 C.2     1  UNL1       -0.0808
     27 C           3.8010    2.3393    0.0000 C.2     1  UNL1       -0.0793
     28 C           2.0000   -0.6777    0.0000 C.3     1  UNL1        0.0790
     29 C           2.9409    2.8493    0.0000 C.3     1  UNL1       -0.0440
     30 C           4.6728    2.8293    0.0000 C.3     1  UNL1       -0.0440
     31 H          11.5499   -0.7688    0.0000 H       1  UNL1        0.0307
     32 H          11.1481   -0.0790    0.0000 H       1  UNL1        0.0307
     33 H          10.3889    0.3516    0.0000 H       1  UNL1        0.0317
     34 H           9.5907    0.3424    0.0000 H       1  UNL1        0.0317
     35 H          10.8976   -2.9235    0.0000 H       1  UNL1        0.0268
     36 H          11.7436   -3.1537    0.0000 H       1  UNL1        0.0268
     37 H          11.9738   -2.3077    0.0000 H       1  UNL1        0.0268
     38 H          11.9367   -2.3715    0.0000 H       1  UNL1        0.0268
     39 H          12.5590   -1.7539    0.0000 H       1  UNL1        0.0268
     40 H          11.9414   -1.1315    0.0000 H       1  UNL1        0.0268
     41 H           8.1509   -2.8598    0.0000 H       1  UNL1        0.0691
     42 H           5.2590    0.7147    0.0000 H       1  UNL1        0.0357
     43 H           4.8684    1.4095    0.0000 H       1  UNL1        0.0357
     44 H           4.6453   -2.8598    0.0000 H       1  UNL1        0.0692
     45 H           8.6798    1.1456    0.0000 H       1  UNL1        0.2922
     46 H           3.2490    1.0356    0.0000 H       1  UNL1        0.0575
     47 H           2.8703   -2.8493    0.0000 H       1  UNL1        0.2923
     48 H           1.6921   -0.1396    0.0000 H       1  UNL1        0.0660
     49 H           1.4619   -0.9856    0.0000 H       1  UNL1        0.0660
     50 H           2.3079   -1.2158    0.0000 H       1  UNL1        0.0660
     51 H           3.2570    3.3826    0.0000 H       1  UNL1        0.0274
     52 H           2.4075    3.1655    0.0000 H       1  UNL1        0.0274
     53 H           2.6247    2.3160    0.0000 H       1  UNL1        0.0274
     54 H           4.9766    2.2888    0.0000 H       1  UNL1        0.0274
     55 H           5.2133    3.1331    0.0000 H       1  UNL1        0.0274
     56 H           4.3690    3.3698    0.0000 H       1  UNL1        0.0274
@<TRIPOS>BOND
     1     1     7    1
     2     1    11    1
     3     2    17   ar
     4     2    20   ar
     5     3    14    1
     6     3    45    1
     7     4    18    2
     8     5    23    1
     9     5    28    1
    10     6    25    1
    11     6    47    1
    12     7     8    1
    13     7    12    1
    14     7    13    1
    15     8     9    1
    16     8    31    1
    17     8    32    1
    18     9    10    1
    19     9    33    1
    20     9    34    1
    21    10    11   ar
    22    10    14   ar
    23    11    16   ar
    24    12    38    1
    25    12    39    1
    26    12    40    1
    27    13    35    1
    28    13    36    1
    29    13    37    1
    30    14    15   ar
    31    15    17   ar
    32    15    18   ar
    33    16    17   ar
    34    16    41    1
    35    18    19   ar
    36    19    20   ar
    37    19    21   ar
    38    20    24   ar
    39    21    22    1
    40    21    23   ar
    41    22    26    1
    42    22    42    1
    43    22    43    1
    44    23    25   ar
    45    24    25   ar
    46    24    44    1
    47    26    27    2
    48    26    46    1
    49    27    29    1
    50    27    30    1
    51    28    48    1
    52    28    49    1
    53    28    50    1
    54    29    51    1
    55    29    52    1
    56    29    53    1
    57    30    54    1
    58    30    55    1
    59    30    56    1
