@<TRIPOS>MOLECULE
IMPHY006382
 58 61 0 0 0
SMALL
GASTEIGER

@<TRIPOS>ATOM
      1 O           4.5841   -2.0841    0.0000 O.3     1  UNL1       -0.4791
      2 O           7.2342   -0.5356    0.0000 O.2     1  UNL1       -0.4538
      3 O           4.6361    0.9644    0.0000 O.2     1  UNL1       -0.2865
      4 O           5.4803    2.4958    0.0000 O.3     1  UNL1       -0.5052
      5 O           9.0201    2.5095    0.0000 O.3     1  UNL1       -0.4943
      6 O           6.4213   -5.2324    0.0000 O.3     1  UNL1       -0.5066
      7 C           5.5021   -0.5356    0.0000 C.ar    1  UNL1        0.0869
      8 C           4.5921   -1.0425    0.0000 C.3     1  UNL1        0.1507
      9 C           6.3682   -1.0356    0.0000 C.ar    1  UNL1        0.1498
     10 C           6.3842   -2.0771    0.0000 C.ar    1  UNL1        0.0597
     11 C           6.3682    0.9644    0.0000 C.ar    1  UNL1        0.1065
     12 C           5.5021    0.4644    0.0000 C.ar    1  UNL1        0.2036
     13 C           7.2342    0.4644    0.0000 C.ar    1  UNL1        0.1463
     14 C           5.4862   -2.6049    0.0000 C.ar    1  UNL1        0.1360
     15 C           3.7319   -0.5325    0.0000 C.2     1  UNL1       -0.0406
     16 C           6.3521    2.0059    0.0000 C.ar    1  UNL1        0.1418
     17 C           7.2501    2.5336    0.0000 C.ar    1  UNL1        0.0587
     18 C           8.1442    0.9712    0.0000 C.ar    1  UNL1        0.0239
     19 C           7.3361   -2.5978    0.0000 C.ar    1  UNL1       -0.0441
     20 C           8.1522    2.0128    0.0000 C.ar    1  UNL1        0.1342
     21 C           5.4778   -3.6899    0.0000 C.ar    1  UNL1        0.0223
     22 C           2.8602   -1.0224    0.0000 C.2     1  UNL1       -0.0759
     23 C           7.3529   -3.6826    0.0000 C.ar    1  UNL1       -0.0193
     24 C           6.4174   -4.2324    0.0000 C.ar    1  UNL1        0.1204
     25 C           7.2463    3.5336    0.0000 C.2     1  UNL1       -0.0512
     26 C           8.1065    5.0369    0.0000 C.3     1  UNL1       -0.0283
     27 C           8.1104    4.0370    0.0000 C.2     1  UNL1       -0.0806
     28 C           2.0000   -0.5125    0.0000 C.3     1  UNL1       -0.0439
     29 C           2.8486   -2.0224    0.0000 C.3     1  UNL1       -0.0439
     30 C           8.9706    5.5403    0.0000 C.3     1  UNL1       -0.0592
     31 C           7.2386    5.5336    0.0000 C.3     1  UNL1       -0.0592
     32 C           9.8842    2.0061    0.0000 C.3     1  UNL1        0.0788
     33 H           4.0522   -1.3473    0.0000 H       1  UNL1        0.0833
     34 H           3.7391    0.0875    0.0000 H       1  UNL1        0.0611
     35 H           8.6775    0.6550    0.0000 H       1  UNL1        0.0691
     36 H           7.8670   -2.2775    0.0000 H       1  UNL1        0.0627
     37 H           4.9397   -3.9978    0.0000 H       1  UNL1        0.0691
     38 H           7.8934   -3.9864    0.0000 H       1  UNL1        0.0654
     39 H           6.7081    3.8416    0.0000 H       1  UNL1        0.0623
     40 H           8.6446    4.7290    0.0000 H       1  UNL1        0.0338
     41 H           8.6485    3.7290    0.0000 H       1  UNL1        0.0575
     42 H           2.2287   -2.0152    0.0000 H       1  UNL1        0.0274
     43 H           2.3162    0.0208    0.0000 H       1  UNL1        0.0274
     44 H           1.4667   -0.1963    0.0000 H       1  UNL1        0.0274
     45 H           1.6838   -1.0458    0.0000 H       1  UNL1        0.0274
     46 H           2.8414   -2.6424    0.0000 H       1  UNL1        0.0274
     47 H           3.4686   -2.0296    0.0000 H       1  UNL1        0.0274
     48 H           5.4732    3.1158    0.0000 H       1  UNL1        0.2922
     49 H           9.2827    5.0045    0.0000 H       1  UNL1        0.0235
     50 H           9.5063    5.8524    0.0000 H       1  UNL1        0.0235
     51 H           8.6585    6.0760    0.0000 H       1  UNL1        0.0235
     52 H           7.5465    6.0717    0.0000 H       1  UNL1        0.0235
     53 H           6.7004    5.8415    0.0000 H       1  UNL1        0.0235
     54 H           6.9306    4.9955    0.0000 H       1  UNL1        0.0235
     55 H           6.9594   -5.5403    0.0000 H       1  UNL1        0.2921
     56 H           9.5722    1.4704    0.0000 H       1  UNL1        0.0660
     57 H          10.4200    1.6941    0.0000 H       1  UNL1        0.0660
     58 H          10.1963    2.5419    0.0000 H       1  UNL1        0.0660
@<TRIPOS>BOND
     1     1     8    1
     2     1    14    1
     3     2     9   ar
     4     2    13   ar
     5     3    12    2
     6     4    16    1
     7     4    48    1
     8     5    20    1
     9     5    32    1
    10     6    24    1
    11     6    55    1
    12     7     8    1
    13     7     9   ar
    14     7    12   ar
    15     8    15    1
    16     8    33    1
    17     9    10    1
    18    10    14   ar
    19    10    19   ar
    20    11    12   ar
    21    11    13   ar
    22    11    16   ar
    23    13    18   ar
    24    14    21   ar
    25    15    22    2
    26    15    34    1
    27    16    17   ar
    28    17    20   ar
    29    17    25    1
    30    18    20   ar
    31    18    35    1
    32    19    23   ar
    33    19    36    1
    34    21    24   ar
    35    21    37    1
    36    22    28    1
    37    22    29    1
    38    23    24   ar
    39    23    38    1
    40    25    27    2
    41    25    39    1
    42    26    27    1
    43    26    30    1
    44    26    31    1
    45    26    40    1
    46    27    41    1
    47    28    43    1
    48    28    44    1
    49    28    45    1
    50    29    42    1
    51    29    46    1
    52    29    47    1
    53    30    49    1
    54    30    50    1
    55    30    51    1
    56    31    52    1
    57    31    53    1
    58    31    54    1
    59    32    56    1
    60    32    57    1
    61    32    58    1
