@<TRIPOS>MOLECULE
IMPHY007976
 81 85 0 0 0
SMALL
GASTEIGER

@<TRIPOS>ATOM
      1 O           3.8435    0.4198    0.0000 O.3     1  UNL1       -0.3908
      2 O          10.9251    0.3969    0.0000 O.3     1  UNL1       -0.3945
      3 O           2.0000   -2.6896    0.0000 O.2     1  UNL1       -0.2967
      4 C           7.3931   -0.6372    0.0000 C.3     1  UNL1       -0.0233
      5 C           6.5271   -1.1372    0.0000 C.3     1  UNL1       -0.0230
      6 C           7.3931    0.3628    0.0000 C.3     1  UNL1       -0.0312
      7 C           5.6610   -0.6372    0.0000 C.3     1  UNL1       -0.0271
      8 C           8.2870    0.8974    0.0000 C.3     1  UNL1       -0.0235
      9 C           4.7510   -1.1441    0.0000 C.3     1  UNL1        0.0013
     10 C           9.1931    0.3836    0.0000 C.3     1  UNL1       -0.0024
     11 C           8.2870   -1.1719    0.0000 C.3     1  UNL1       -0.0463
     12 C           4.7430   -2.1857    0.0000 C.3     1  UNL1       -0.0212
     13 C           6.5271    0.8628    0.0000 C.3     1  UNL1       -0.0491
     14 C           5.6610    0.3628    0.0000 C.3     1  UNL1       -0.0488
     15 C           6.5431   -2.1788    0.0000 C.3     1  UNL1       -0.0465
     16 C           9.1931   -0.6581    0.0000 C.3     1  UNL1       -0.0445
     17 C           8.4971    1.9113    0.0000 C.3     1  UNL1       -0.0167
     18 C           5.6451   -2.7065    0.0000 C.3     1  UNL1       -0.0482
     19 C           9.9554    1.0843    0.0000 C.3     1  UNL1       -0.0445
     20 C           7.7352   -1.5769    0.0000 C.3     1  UNL1       -0.0588
     21 C           7.1698   -1.9033    0.0000 C.3     1  UNL1       -0.0588
     22 C           3.8242   -0.5800    0.0000 C.3     1  UNL1        0.0678
     23 C           3.8076   -2.7354    0.0000 C.3     1  UNL1        0.0269
     24 C           9.5262    2.0266    0.0000 C.3     1  UNL1       -0.0457
     25 C           4.7587   -0.1441    0.0000 C.3     1  UNL1       -0.0566
     26 C          10.0629   -0.1097    0.0000 C.3     1  UNL1        0.0501
     27 C           2.8763   -1.1080    0.0000 C.3     1  UNL1        0.0329
     28 C           2.8680   -2.1929    0.0000 C.2     1  UNL1        0.1417
     29 C           7.8236    2.6505    0.0000 C.2     1  UNL1       -0.0763
     30 C           3.3109   -3.6034    0.0000 C.3     1  UNL1       -0.0528
     31 C           4.3109   -3.5995    0.0000 C.3     1  UNL1       -0.0528
     32 C           8.1269    3.6034    0.0000 C.3     1  UNL1       -0.0438
     33 C           6.8467    2.4367    0.0000 C.2     1  UNL1       -0.0994
     34 H           7.3865    1.2127    0.0000 H       1  UNL1        0.0309
     35 H           6.3972   -0.2122    0.0000 H       1  UNL1        0.0312
     36 H           7.5943    1.3900    0.0000 H       1  UNL1        0.0315
     37 H           7.8824   -1.6417    0.0000 H       1  UNL1        0.0271
     38 H           8.6806   -1.6509    0.0000 H       1  UNL1        0.0271
     39 H           4.7463   -3.0357    0.0000 H       1  UNL1        0.0316
     40 H           6.9256    1.3377    0.0000 H       1  UNL1        0.0268
     41 H           6.1285    1.3377    0.0000 H       1  UNL1        0.0268
     42 H           5.4490    0.9454    0.0000 H       1  UNL1        0.0268
     43 H           5.0504    0.2551    0.0000 H       1  UNL1        0.0268
     44 H           6.7612   -2.7592    0.0000 H       1  UNL1        0.0271
     45 H           7.1523   -2.0632    0.0000 H       1  UNL1        0.0271
     46 H           9.4022   -1.2418    0.0000 H       1  UNL1        0.0272
     47 H           9.8040   -0.5520    0.0000 H       1  UNL1        0.0272
     48 H           7.8992    1.7476    0.0000 H       1  UNL1        0.0348
     49 H           5.2478   -3.1825    0.0000 H       1  UNL1        0.0269
     50 H           6.0460   -3.1794    0.0000 H       1  UNL1        0.0269
     51 H          10.3247    0.5863    0.0000 H       1  UNL1        0.0272
     52 H          10.4895    1.3992    0.0000 H       1  UNL1        0.0272
     53 H           7.1526   -1.7890    0.0000 H       1  UNL1        0.0235
     54 H           7.9473   -2.1595    0.0000 H       1  UNL1        0.0235
     55 H           8.3178   -1.3648    0.0000 H       1  UNL1        0.0235
     56 H           6.6949   -2.3018    0.0000 H       1  UNL1        0.0235
     57 H           7.5684   -2.3782    0.0000 H       1  UNL1        0.0235
     58 H           7.6448   -1.5048    0.0000 H       1  UNL1        0.0235
     59 H           3.2927   -0.2607    0.0000 H       1  UNL1        0.0603
     60 H          10.1143    2.2229    0.0000 H       1  UNL1        0.0271
     61 H           9.3928    2.6321    0.0000 H       1  UNL1        0.0271
     62 H           5.3787   -0.1489    0.0000 H       1  UNL1        0.0236
     63 H           4.7635    0.4759    0.0000 H       1  UNL1        0.0236
     64 H           4.1388   -0.1393    0.0000 H       1  UNL1        0.0236
     65 H           9.6681   -0.5877    0.0000 H       1  UNL1        0.0563
     66 H          10.4651   -0.5816    0.0000 H       1  UNL1        0.0563
     67 H           2.6718   -0.5227    0.0000 H       1  UNL1        0.0367
     68 H           2.2647   -1.2093    0.0000 H       1  UNL1        0.0367
     69 H           2.7728   -3.2954    0.0000 H       1  UNL1        0.0239
     70 H           3.7752   -3.9116    0.0000 H       1  UNL1        0.0239
     71 H           4.6230   -4.1352    0.0000 H       1  UNL1        0.0239
     72 H           4.8466   -3.2874    0.0000 H       1  UNL1        0.0239
     73 H           3.0030   -4.1415    0.0000 H       1  UNL1        0.0239
     74 H           3.8490   -3.9113    0.0000 H       1  UNL1        0.0239
     75 H           3.3126    0.7401    0.0000 H       1  UNL1        0.2098
     76 H          11.4644    0.0911    0.0000 H       1  UNL1        0.2094
     77 H           8.7177    3.4153    0.0000 H       1  UNL1        0.0274
     78 H           8.3150    4.1941    0.0000 H       1  UNL1        0.0274
     79 H           7.5361    3.7914    0.0000 H       1  UNL1        0.0274
     80 H           6.4291    2.8950    0.0000 H       1  UNL1        0.0534
     81 H           6.6586    1.8459    0.0000 H       1  UNL1        0.0534
@<TRIPOS>BOND
     1    22     1    1
     2     1    75    1
     3     2    26    1
     4     2    76    1
     5     3    28    2
     6     4     5    1
     7     4     6    1
     8     4    11    1
     9     4    20    1
    10     5     7    1
    11     5    15    1
    12     5    21    1
    13     6     8    1
    14     6    13    1
    15     6    34    1
    16     7     9    1
    17     7    14    1
    18     7    35    1
    19     8    10    1
    20     8    17    1
    21     8    36    1
    22     9    12    1
    23     9    22    1
    24     9    25    1
    25    10    16    1
    26    10    19    1
    27    10    26    1
    28    11    16    1
    29    11    37    1
    30    11    38    1
    31    12    18    1
    32    12    23    1
    33    12    39    1
    34    13    14    1
    35    13    40    1
    36    13    41    1
    37    14    42    1
    38    14    43    1
    39    15    18    1
    40    15    44    1
    41    15    45    1
    42    16    46    1
    43    16    47    1
    44    17    24    1
    45    17    29    1
    46    17    48    1
    47    18    49    1
    48    18    50    1
    49    19    24    1
    50    19    51    1
    51    19    52    1
    52    20    53    1
    53    20    54    1
    54    20    55    1
    55    21    56    1
    56    21    57    1
    57    21    58    1
    58    22    27    1
    59    22    59    1
    60    23    28    1
    61    23    30    1
    62    23    31    1
    63    24    60    1
    64    24    61    1
    65    25    62    1
    66    25    63    1
    67    25    64    1
    68    26    65    1
    69    26    66    1
    70    27    28    1
    71    27    67    1
    72    27    68    1
    73    29    32    1
    74    29    33    2
    75    30    69    1
    76    30    73    1
    77    30    74    1
    78    31    70    1
    79    31    71    1
    80    31    72    1
    81    32    77    1
    82    32    78    1
    83    32    79    1
    84    33    80    1
    85    33    81    1
