@<TRIPOS>MOLECULE
IMPHY013780
 28 28 0 0 0
SMALL
GASTEIGER

@<TRIPOS>ATOM
      1 O           3.8660    1.8100    0.0000 O.2     1  UNL1       -0.2973
      2 N           3.8660   -1.1900    0.0000 N.3     1  UNL1       -0.3053
      3 C           4.7320   -0.6900    0.0000 C.3     1  UNL1        0.0207
      4 C           3.0000   -0.6900    0.0000 C.3     1  UNL1        0.0207
      5 C           4.7320    0.3100    0.0000 C.3     1  UNL1        0.0237
      6 C           3.0000    0.3100    0.0000 C.3     1  UNL1        0.0237
      7 C           3.8660    0.8100    0.0000 C.2     1  UNL1        0.1368
      8 C           5.7320   -0.6900    0.0000 C.3     1  UNL1       -0.0466
      9 C           5.2320   -1.5560    0.0000 C.3     1  UNL1       -0.0466
     10 C           2.0000   -0.6900    0.0000 C.3     1  UNL1       -0.0466
     11 C           2.5000   -1.5560    0.0000 C.3     1  UNL1       -0.0466
     12 H           3.8660   -1.8100    0.0000 H       1  UNL1        0.1230
     13 H           5.3426    0.2023    0.0000 H       1  UNL1        0.0359
     14 H           4.9441    0.8926    0.0000 H       1  UNL1        0.0359
     15 H           2.7880    0.8926    0.0000 H       1  UNL1        0.0359
     16 H           2.3894    0.2023    0.0000 H       1  UNL1        0.0359
     17 H           5.7320   -1.3100    0.0000 H       1  UNL1        0.0247
     18 H           6.3520   -0.6900    0.0000 H       1  UNL1        0.0247
     19 H           5.7320   -0.0700    0.0000 H       1  UNL1        0.0247
     20 H           4.6951   -1.8660    0.0000 H       1  UNL1        0.0247
     21 H           5.5420   -2.0930    0.0000 H       1  UNL1        0.0247
     22 H           5.7690   -1.2460    0.0000 H       1  UNL1        0.0247
     23 H           2.0000   -0.0700    0.0000 H       1  UNL1        0.0247
     24 H           1.3800   -0.6900    0.0000 H       1  UNL1        0.0247
     25 H           2.0000   -1.3100    0.0000 H       1  UNL1        0.0247
     26 H           1.9631   -1.2460    0.0000 H       1  UNL1        0.0247
     27 H           2.1900   -2.0930    0.0000 H       1  UNL1        0.0247
     28 H           3.0369   -1.8660    0.0000 H       1  UNL1        0.0247
@<TRIPOS>BOND
     1     1     7    2
     2     2     3    1
     3     2     4    1
     4     2    12    1
     5     3     5    1
     6     3     8    1
     7     3     9    1
     8     4     6    1
     9     4    10    1
    10     4    11    1
    11     5     7    1
    12     5    13    1
    13     5    14    1
    14     6     7    1
    15     6    15    1
    16     6    16    1
    17     8    17    1
    18     8    18    1
    19     8    19    1
    20     9    20    1
    21     9    21    1
    22     9    22    1
    23    10    23    1
    24    10    24    1
    25    10    25    1
    26    11    26    1
    27    11    27    1
    28    11    28    1
