@<TRIPOS>MOLECULE
IMPHY003378
 35 37 0 0 0
SMALL
GASTEIGER

@<TRIPOS>ATOM
      1 O           2.7320   -1.0843    0.0000 O.3     1  UNL1       -0.3650
      2 O           6.3580    0.3810    0.0000 O.2     1  UNL1       -0.4218
      3 O           2.8660    0.4157    0.0000 O.3     1  UNL1       -0.4947
      4 O           8.1282    0.3915    0.0000 O.2     1  UNL1       -0.2452
      5 C           3.2320   -1.9503    0.0000 C.3     1  UNL1        0.0907
      6 C           3.7320   -1.0843    0.0000 C.3     1  UNL1        0.0920
      7 C           4.5981   -0.5843    0.0000 C.3     1  UNL1        0.0084
      8 C           2.3660   -2.4503    0.0000 C.3     1  UNL1       -0.0336
      9 C           4.0981   -2.4503    0.0000 C.3     1  UNL1       -0.0336
     10 C           4.5981    0.4157    0.0000 C.ar    1  UNL1        0.0397
     11 C           5.4641    0.9157    0.0000 C.ar    1  UNL1        0.1458
     12 C           3.7320    0.9157    0.0000 C.ar    1  UNL1        0.1269
     13 C           5.4641    1.9157    0.0000 C.ar    1  UNL1        0.0181
     14 C           3.7320    1.9157    0.0000 C.ar    1  UNL1       -0.0189
     15 C           4.5981    2.4157    0.0000 C.ar    1  UNL1       -0.0476
     16 C           6.3580    2.4503    0.0000 C.ar    1  UNL1       -0.0443
     17 C           7.2641    0.8949    0.0000 C.ar    1  UNL1        0.3372
     18 C           7.2641    1.9365    0.0000 C.ar    1  UNL1        0.0236
     19 C           2.0000    0.9157    0.0000 C.3     1  UNL1        0.0788
     20 H           3.5716   -0.4854    0.0000 H       1  UNL1        0.0628
     21 H           4.8101   -1.1669    0.0000 H       1  UNL1        0.0341
     22 H           5.2087   -0.4767    0.0000 H       1  UNL1        0.0341
     23 H           3.7881   -2.9873    0.0000 H       1  UNL1        0.0258
     24 H           4.6350   -2.7603    0.0000 H       1  UNL1        0.0258
     25 H           4.4081   -1.9134    0.0000 H       1  UNL1        0.0258
     26 H           2.0560   -1.9134    0.0000 H       1  UNL1        0.0258
     27 H           1.8291   -2.7603    0.0000 H       1  UNL1        0.0258
     28 H           2.6760   -2.9873    0.0000 H       1  UNL1        0.0258
     29 H           3.1951    2.2257    0.0000 H       1  UNL1        0.0654
     30 H           4.5981    3.0357    0.0000 H       1  UNL1        0.0626
     31 H           6.3509    3.0703    0.0000 H       1  UNL1        0.0627
     32 H           7.7998    2.2486    0.0000 H       1  UNL1        0.0689
     33 H           2.3100    1.4526    0.0000 H       1  UNL1        0.0660
     34 H           1.4631    1.2257    0.0000 H       1  UNL1        0.0660
     35 H           1.6900    0.3787    0.0000 H       1  UNL1        0.0660
@<TRIPOS>BOND
     1     1     5    1
     2     1     6    1
     3     2    11   ar
     4     2    17   ar
     5     3    12    1
     6     3    19    1
     7     4    17    2
     8     5     6    1
     9     5     8    1
    10     5     9    1
    11     6     7    1
    12     6    20    1
    13     7    10    1
    14     7    21    1
    15     7    22    1
    16     8    26    1
    17     8    27    1
    18     8    28    1
    19     9    23    1
    20     9    24    1
    21     9    25    1
    22    10    11   ar
    23    10    12   ar
    24    11    13   ar
    25    12    14   ar
    26    13    15   ar
    27    13    16   ar
    28    14    15   ar
    29    14    29    1
    30    15    30    1
    31    16    18   ar
    32    16    31    1
    33    17    18   ar
    34    18    32    1
    35    19    33    1
    36    19    34    1
    37    19    35    1
