@<TRIPOS>MOLECULE
IMPHY002625
 23 24 0 0 0
SMALL
GASTEIGER

@<TRIPOS>ATOM
      1 O           2.0000   -1.1416    0.0000 O.2     1  UNL1       -0.4696
      2 O           2.0000    1.8584    0.0000 O.3     1  UNL1       -0.4644
      3 O           3.7320    1.8584    0.0000 O.2     1  UNL1       -0.2448
      4 O           5.9674   -2.6031    0.0000 O.2     1  UNL1       -0.2957
      5 C           3.7320   -0.1416    0.0000 C.ar    1  UNL1        0.0026
      6 C           3.7320   -1.1416    0.0000 C.ar    1  UNL1        0.0280
      7 C           4.6783   -1.4464    0.0000 C.ar    1  UNL1        0.0248
      8 C           2.8660    0.3584    0.0000 C.ar    1  UNL1        0.1014
      9 C           4.6783    0.1631    0.0000 C.ar    1  UNL1       -0.0524
     10 C           5.2619   -0.6416    0.0000 C.ar    1  UNL1       -0.0503
     11 C           2.8660   -1.6416    0.0000 C.ar    1  UNL1        0.1000
     12 C           2.0000   -0.1416    0.0000 C.ar    1  UNL1        0.1062
     13 C           2.8660    1.3584    0.0000 C.2     1  UNL1        0.3425
     14 C           4.9889   -2.3969    0.0000 C.2     1  UNL1        0.1509
     15 C           2.0000    2.8584    0.0000 C.3     1  UNL1        0.0820
     16 H           4.8709    0.7524    0.0000 H       1  UNL1        0.0624
     17 H           5.8819   -0.6416    0.0000 H       1  UNL1        0.0625
     18 H           2.8660   -2.2616    0.0000 H       1  UNL1        0.1036
     19 H           1.4631    0.1684    0.0000 H       1  UNL1        0.1038
     20 H           4.5749   -2.8584    0.0000 H       1  UNL1        0.1082
     21 H           2.6200    2.8584    0.0000 H       1  UNL1        0.0661
     22 H           2.0000    3.4784    0.0000 H       1  UNL1        0.0661
     23 H           1.3800    2.8584    0.0000 H       1  UNL1        0.0661
@<TRIPOS>BOND
     1     1    11   ar
     2     1    12   ar
     3     2    13    1
     4     2    15    1
     5     3    13    2
     6     4    14    2
     7     5     6    1
     8     5     8   ar
     9     5     9   ar
    10     6     7   ar
    11     6    11   ar
    12     7    10   ar
    13     7    14    1
    14     8    12   ar
    15     8    13    1
    16     9    10   ar
    17     9    16    1
    18    10    17    1
    19    11    18    1
    20    12    19    1
    21    14    20    1
    22    15    21    1
    23    15    22    1
    24    15    23    1
