@<TRIPOS>MOLECULE
IMPHY006334
 34 35 0 0 0
SMALL
GASTEIGER

@<TRIPOS>ATOM
      1 O           2.0000    1.2550    0.0000 O.3     1  UNL1       -0.5065
      2 C           5.4920   -0.7797    0.0000 C.ar    1  UNL1       -0.0371
      3 C           5.4804   -1.7796    0.0000 C.3     1  UNL1       -0.0209
      4 C           4.5981   -0.2450    0.0000 C.ar    1  UNL1       -0.0137
      5 C           4.5981    0.7550    0.0000 C.ar    1  UNL1       -0.0112
      6 C           5.4920    1.2896    0.0000 C.ar    1  UNL1       -0.0426
      7 C           6.3981   -0.2658    0.0000 C.ar    1  UNL1       -0.0575
      8 C           3.7320   -0.7450    0.0000 C.ar    1  UNL1       -0.0474
      9 C           6.3406   -2.2896    0.0000 C.3     1  UNL1       -0.0586
     10 C           4.6087   -2.2696    0.0000 C.3     1  UNL1       -0.0586
     11 C           6.3981    0.7758    0.0000 C.ar    1  UNL1       -0.0580
     12 C           3.7320    1.2550    0.0000 C.ar    1  UNL1       -0.0119
     13 C           2.8660   -0.2450    0.0000 C.ar    1  UNL1       -0.0084
     14 C           2.8660    0.7550    0.0000 C.ar    1  UNL1        0.1204
     15 C           5.4804    2.2896    0.0000 C.3     1  UNL1       -0.0391
     16 C           2.0000   -0.7450    0.0000 C.3     1  UNL1       -0.0362
     17 H           6.0209   -1.4758    0.0000 H       1  UNL1        0.0344
     18 H           6.9338   -0.5779    0.0000 H       1  UNL1        0.0621
     19 H           3.7320   -1.3650    0.0000 H       1  UNL1        0.0627
     20 H           6.0244   -2.8229    0.0000 H       1  UNL1        0.0235
     21 H           6.8740   -2.6058    0.0000 H       1  UNL1        0.0235
     22 H           6.6568   -1.7563    0.0000 H       1  UNL1        0.0235
     23 H           4.3049   -1.7291    0.0000 H       1  UNL1        0.0235
     24 H           4.0682   -2.5733    0.0000 H       1  UNL1        0.0235
     25 H           4.9125   -2.8100    0.0000 H       1  UNL1        0.0235
     26 H           6.9338    1.0879    0.0000 H       1  UNL1        0.0620
     27 H           3.7320    1.8750    0.0000 H       1  UNL1        0.0660
     28 H           6.1004    2.2968    0.0000 H       1  UNL1        0.0278
     29 H           5.4733    2.9095    0.0000 H       1  UNL1        0.0278
     30 H           4.8605    2.2824    0.0000 H       1  UNL1        0.0278
     31 H           1.6900   -0.2081    0.0000 H       1  UNL1        0.0279
     32 H           1.4631   -1.0550    0.0000 H       1  UNL1        0.0279
     33 H           2.3100   -1.2820    0.0000 H       1  UNL1        0.0279
     34 H           2.0000    1.8750    0.0000 H       1  UNL1        0.2921
@<TRIPOS>BOND
     1     1    14    1
     2     1    34    1
     3     2     3    1
     4     2     4   ar
     5     2     7   ar
     6     3     9    1
     7     3    10    1
     8     3    17    1
     9     4     5   ar
    10     4     8   ar
    11     5     6   ar
    12     5    12   ar
    13     6    11   ar
    14     6    15    1
    15     7    11   ar
    16     7    18    1
    17     8    13   ar
    18     8    19    1
    19     9    20    1
    20     9    21    1
    21     9    22    1
    22    10    23    1
    23    10    24    1
    24    10    25    1
    25    11    26    1
    26    12    14   ar
    27    12    27    1
    28    13    14   ar
    29    13    16    1
    30    15    28    1
    31    15    29    1
    32    15    30    1
    33    16    31    1
    34    16    32    1
    35    16    33    1
