@<TRIPOS>MOLECULE
IMPHY011794
 39 39 0 0 0
SMALL
GASTEIGER

@<TRIPOS>ATOM
      1 C           5.4242   -0.8711    0.0000 C.3     1  UNL1       -0.0135
      2 C           4.7693   -1.6268    0.0000 C.3     1  UNL1       -0.0259
      3 C           5.5665    0.1188    0.0000 C.2     1  UNL1       -0.0817
      4 C           5.7512   -1.8160    0.0000 C.3     1  UNL1       -0.0561
      5 C           6.4140   -1.0134    0.0000 C.3     1  UNL1       -0.0561
      6 C           3.8098   -1.9085    0.0000 C.2     1  UNL1       -0.0842
      7 C           2.8503   -1.6268    0.0000 C.2     1  UNL1       -0.0762
      8 C           2.1955   -0.8711    0.0000 C.3     1  UNL1       -0.0286
      9 C           5.1511    1.0284    0.0000 C.2     1  UNL1       -0.0834
     10 C           2.0532    0.1188    0.0000 C.3     1  UNL1       -0.0308
     11 C           4.3098    1.5690    0.0000 C.3     1  UNL1       -0.0138
     12 C           3.3098    1.5690    0.0000 C.2     1  UNL1       -0.0728
     13 C           2.4686    1.0284    0.0000 C.2     1  UNL1       -0.0844
     14 C           2.3097   -2.4681    0.0000 C.3     1  UNL1       -0.0438
     15 C           3.0281    2.5285    0.0000 C.3     1  UNL1       -0.0435
     16 H           4.7398   -2.2461    0.0000 H       1  UNL1        0.0316
     17 H           4.4341   -1.1052    0.0000 H       1  UNL1        0.0316
     18 H           6.1802    0.2070    0.0000 H       1  UNL1        0.0575
     19 H           5.1653   -2.0188    0.0000 H       1  UNL1        0.0238
     20 H           5.9540   -2.4019    0.0000 H       1  UNL1        0.0238
     21 H           6.3371   -1.6133    0.0000 H       1  UNL1        0.0238
     22 H           6.3258   -1.6271    0.0000 H       1  UNL1        0.0238
     23 H           7.0277   -1.1016    0.0000 H       1  UNL1        0.0238
     24 H           6.5022   -0.3997    0.0000 H       1  UNL1        0.0238
     25 H           3.8098   -2.5285    0.0000 H       1  UNL1        0.0572
     26 H           1.5867   -0.7537    0.0000 H       1  UNL1        0.0313
     27 H           2.7594   -0.6135    0.0000 H       1  UNL1        0.0313
     28 H           5.6196    1.4344    0.0000 H       1  UNL1        0.0572
     29 H           1.6044    0.5466    0.0000 H       1  UNL1        0.0310
     30 H           2.6668    0.0305    0.0000 H       1  UNL1        0.0310
     31 H           4.7972    1.9523    0.0000 H       1  UNL1        0.0352
     32 H           4.1351    0.9742    0.0000 H       1  UNL1        0.0352
     33 H           2.0000    1.4344    0.0000 H       1  UNL1        0.0572
     34 H           1.7881   -2.1329    0.0000 H       1  UNL1        0.0274
     35 H           1.9745   -2.9896    0.0000 H       1  UNL1        0.0274
     36 H           2.8313   -2.8032    0.0000 H       1  UNL1        0.0274
     37 H           3.6230    2.7032    0.0000 H       1  UNL1        0.0274
     38 H           2.8534    3.1234    0.0000 H       1  UNL1        0.0274
     39 H           2.4332    2.3539    0.0000 H       1  UNL1        0.0274
@<TRIPOS>BOND
     1     1     2    1
     2     1     3    1
     3     1     4    1
     4     1     5    1
     5     2     6    1
     6     2    16    1
     7     2    17    1
     8     3     9    2
     9     3    18    1
    10     4    19    1
    11     4    20    1
    12     4    21    1
    13     5    22    1
    14     5    23    1
    15     5    24    1
    16     6     7    2
    17     6    25    1
    18     7     8    1
    19     7    14    1
    20     8    10    1
    21     8    26    1
    22     8    27    1
    23     9    11    1
    24     9    28    1
    25    10    13    1
    26    10    29    1
    27    10    30    1
    28    11    12    1
    29    11    31    1
    30    11    32    1
    31    12    13    2
    32    12    15    1
    33    13    33    1
    34    14    34    1
    35    14    35    1
    36    14    36    1
    37    15    37    1
    38    15    38    1
    39    15    39    1
