@<TRIPOS>MOLECULE
IMPHY015947
 40 40 0 0 0
SMALL
GASTEIGER

@<TRIPOS>ATOM
      1 O           3.0000    1.5000    0.0000 O.3     1  UNL1       -0.4582
      2 O           4.7320    1.5000    0.0000 O.2     1  UNL1       -0.2505
      3 C           3.0000   -0.5000    0.0000 C.3     1  UNL1        0.0022
      4 C           3.0000    0.5000    0.0000 C.3     1  UNL1        0.1110
      5 C           2.1340   -1.0000    0.0000 C.3     1  UNL1       -0.0426
      6 C           3.8660   -1.0000    0.0000 C.3     1  UNL1       -0.0281
      7 C           2.1340   -2.0000    0.0000 C.3     1  UNL1       -0.0316
      8 C           3.0000   -2.5000    0.0000 C.2     1  UNL1       -0.0765
      9 C           3.8660   -2.0000    0.0000 C.2     1  UNL1       -0.0846
     10 C           4.0000    0.5000    0.0000 C.3     1  UNL1       -0.0248
     11 C           2.0000    0.5000    0.0000 C.3     1  UNL1       -0.0248
     12 C           3.0000   -3.5000    0.0000 C.3     1  UNL1       -0.0438
     13 C           3.8660    2.0000    0.0000 C.2     1  UNL1        0.3102
     14 C           3.8660    3.0000    0.0000 C.3     1  UNL1        0.0509
     15 C           4.7320    3.5000    0.0000 C.3     1  UNL1       -0.0525
     16 C           3.0000    3.5000    0.0000 C.3     1  UNL1       -0.0525
     17 H           3.5369   -0.1900    0.0000 H       1  UNL1        0.0342
     18 H           1.9219   -0.4174    0.0000 H       1  UNL1        0.0272
     19 H           1.5234   -1.1077    0.0000 H       1  UNL1        0.0272
     20 H           4.4766   -1.1077    0.0000 H       1  UNL1        0.0311
     21 H           4.0781   -0.4174    0.0000 H       1  UNL1        0.0311
     22 H           1.5234   -1.8923    0.0000 H       1  UNL1        0.0310
     23 H           1.9219   -2.5826    0.0000 H       1  UNL1        0.0310
     24 H           4.4030   -2.3100    0.0000 H       1  UNL1        0.0572
     25 H           4.0000   -0.1200    0.0000 H       1  UNL1        0.0268
     26 H           4.6200    0.5000    0.0000 H       1  UNL1        0.0268
     27 H           4.0000    1.1200    0.0000 H       1  UNL1        0.0268
     28 H           2.0000    1.1200    0.0000 H       1  UNL1        0.0268
     29 H           1.3800    0.5000    0.0000 H       1  UNL1        0.0268
     30 H           2.0000   -0.1200    0.0000 H       1  UNL1        0.0268
     31 H           2.3800   -3.5000    0.0000 H       1  UNL1        0.0274
     32 H           3.0000   -4.1200    0.0000 H       1  UNL1        0.0274
     33 H           3.6200   -3.5000    0.0000 H       1  UNL1        0.0274
     34 H           3.8660    3.6200    0.0000 H       1  UNL1        0.0408
     35 H           5.0420    2.9631    0.0000 H       1  UNL1        0.0237
     36 H           5.2690    3.8100    0.0000 H       1  UNL1        0.0237
     37 H           4.4220    4.0369    0.0000 H       1  UNL1        0.0237
     38 H           3.3100    4.0369    0.0000 H       1  UNL1        0.0237
     39 H           2.4631    3.8100    0.0000 H       1  UNL1        0.0237
     40 H           2.6900    2.9631    0.0000 H       1  UNL1        0.0237
@<TRIPOS>BOND
     1     1     4    1
     2     1    13    1
     3     2    13    2
     4     3     4    1
     5     3     5    1
     6     3     6    1
     7     3    17    1
     8     4    10    1
     9     4    11    1
    10     5     7    1
    11     5    18    1
    12     5    19    1
    13     6     9    1
    14     6    20    1
    15     6    21    1
    16     7     8    1
    17     7    22    1
    18     7    23    1
    19     8     9    2
    20     8    12    1
    21     9    24    1
    22    10    25    1
    23    10    26    1
    24    10    27    1
    25    11    28    1
    26    11    29    1
    27    11    30    1
    28    12    31    1
    29    12    32    1
    30    12    33    1
    31    13    14    1
    32    14    15    1
    33    14    16    1
    34    14    34    1
    35    15    35    1
    36    15    36    1
    37    15    37    1
    38    16    38    1
    39    16    39    1
    40    16    40    1
