@<TRIPOS>MOLECULE
IMPHY004393
 32 34 0 0 0
SMALL
GASTEIGER

@<TRIPOS>ATOM
      1 O           6.0682   -0.6154    0.0000 O.2     1  UNL1       -0.4470
      2 O           7.8003    1.3846    0.0000 O.3     1  UNL1       -0.5007
      3 O           4.3198    2.4192    0.0000 O.3     1  UNL1       -0.5058
      4 O           4.3198   -1.6500    0.0000 O.3     1  UNL1       -0.5009
      5 O           6.0682    2.3846    0.0000 O.2     1  UNL1       -0.2830
      6 O           2.5381   -0.6395    0.0000 O.3     1  UNL1       -0.5031
      7 O          10.3984   -2.1154    0.0000 O.3     1  UNL1       -0.5068
      8 C           5.2022    0.8846    0.0000 C.ar    1  UNL1        0.1128
      9 C           5.2022   -0.1154    0.0000 C.ar    1  UNL1        0.1879
     10 C           6.9343   -0.1154    0.0000 C.ar    1  UNL1        0.1808
     11 C           6.0682    1.3846    0.0000 C.ar    1  UNL1        0.2380
     12 C           6.9343    0.8846    0.0000 C.ar    1  UNL1        0.2082
     13 C           7.8003   -0.6154    0.0000 C.ar    1  UNL1        0.0213
     14 C           4.3083    1.4193    0.0000 C.ar    1  UNL1        0.1350
     15 C           4.3083   -0.6501    0.0000 C.ar    1  UNL1        0.2024
     16 C           3.4022   -0.1362    0.0000 C.ar    1  UNL1        0.1655
     17 C           3.4022    0.9054    0.0000 C.ar    1  UNL1        0.0259
     18 C           7.8003   -1.6154    0.0000 C.ar    1  UNL1       -0.0475
     19 C           8.6663   -0.1154    0.0000 C.ar    1  UNL1       -0.0475
     20 C           8.6663   -2.1154    0.0000 C.ar    1  UNL1       -0.0195
     21 C           9.5323   -0.6154    0.0000 C.ar    1  UNL1       -0.0195
     22 C           9.5323   -1.6154    0.0000 C.ar    1  UNL1        0.1169
     23 H           2.8665    1.2175    0.0000 H       1  UNL1        0.0692
     24 H           7.2634   -1.9254    0.0000 H       1  UNL1        0.0626
     25 H           8.6663    0.5046    0.0000 H       1  UNL1        0.0626
     26 H           8.6663   -2.7354    0.0000 H       1  UNL1        0.0654
     27 H          10.0693   -0.3054    0.0000 H       1  UNL1        0.0654
     28 H           7.8003    2.0046    0.0000 H       1  UNL1        0.2924
     29 H           3.7865    2.7354    0.0000 H       1  UNL1        0.2922
     30 H           3.7865   -1.9662    0.0000 H       1  UNL1        0.2924
     31 H           2.0000   -0.3316    0.0000 H       1  UNL1        0.2923
     32 H          10.3984   -2.7354    0.0000 H       1  UNL1        0.2921
@<TRIPOS>BOND
     1     1     9   ar
     2     1    10   ar
     3     2    12    1
     4     2    28    1
     5     3    14    1
     6     3    29    1
     7     4    15    1
     8     4    30    1
     9     5    11    2
    10     6    16    1
    11     6    31    1
    12     7    22    1
    13     7    32    1
    14     8     9   ar
    15     8    11   ar
    16     8    14   ar
    17     9    15   ar
    18    10    12   ar
    19    10    13    1
    20    11    12   ar
    21    13    18   ar
    22    13    19   ar
    23    14    17   ar
    24    15    16   ar
    25    16    17   ar
    26    17    23    1
    27    18    20   ar
    28    18    24    1
    29    19    21   ar
    30    19    25    1
    31    20    22   ar
    32    20    26    1
    33    21    22   ar
    34    21    27    1
