@<TRIPOS>MOLECULE
IMPHY012666
 17 17 0 0 0
SMALL
GASTEIGER

@<TRIPOS>ATOM
      1 N           3.7320    2.7500    0.0000 N.1     1  UNL1       -0.1915
      2 C           2.8660   -0.7500    0.0000 C.ar    1  UNL1       -0.0244
      3 C           2.0000   -1.2500    0.0000 C.ar    1  UNL1       -0.0546
      4 C           3.7320   -1.2500    0.0000 C.ar    1  UNL1       -0.0546
      5 C           2.0000   -2.2500    0.0000 C.ar    1  UNL1       -0.0612
      6 C           3.7320   -2.2500    0.0000 C.ar    1  UNL1       -0.0612
      7 C           2.8660   -2.7500    0.0000 C.ar    1  UNL1       -0.0617
      8 C           2.8660    0.2500    0.0000 C.2     1  UNL1       -0.0444
      9 C           3.7320    0.7500    0.0000 C.2     1  UNL1        0.0159
     10 C           3.7320    1.7500    0.0000 C.1     1  UNL1        0.0914
     11 H           1.4631   -0.9400    0.0000 H       1  UNL1        0.0623
     12 H           4.2690   -0.9400    0.0000 H       1  UNL1        0.0623
     13 H           1.4631   -2.5600    0.0000 H       1  UNL1        0.0618
     14 H           4.2690   -2.5600    0.0000 H       1  UNL1        0.0618
     15 H           2.8660   -3.3700    0.0000 H       1  UNL1        0.0618
     16 H           2.3291    0.5600    0.0000 H       1  UNL1        0.0630
     17 H           4.2690    0.4400    0.0000 H       1  UNL1        0.0733
@<TRIPOS>BOND
     1     1    10    3
     2     2     3   ar
     3     2     4   ar
     4     2     8    1
     5     3     5   ar
     6     3    11    1
     7     4     6   ar
     8     4    12    1
     9     5     7   ar
    10     5    13    1
    11     6     7   ar
    12     6    14    1
    13     7    15    1
    14     8     9    2
    15     8    16    1
    16     9    10    1
    17     9    17    1
