@<TRIPOS>MOLECULE
IMPHY002049
 42 43 0 0 0
SMALL
GASTEIGER

@<TRIPOS>ATOM
      1 O           6.4963   -2.5631    0.0000 O.3     1  UNL1       -0.3697
      2 O           3.7061    0.3010    0.0000 O.3     1  UNL1       -0.3810
      3 O           2.1077   -2.7028    0.0000 O.3     1  UNL1       -0.3917
      4 O           8.3783    2.5157    0.0000 O.3     1  UNL1       -0.4775
      5 O           7.3603    1.1144    0.0000 O.2     1  UNL1       -0.2458
      6 C           5.3562   -1.0884    0.0000 C.3     1  UNL1        0.0287
      7 C           4.6196   -0.1058    0.0000 C.3     1  UNL1        0.1205
      8 C           5.0974   -2.0543    0.0000 C.3     1  UNL1        0.1017
      9 C           3.3230   -1.3995    0.0000 C.3     1  UNL1       -0.0162
     10 C           3.8764   -2.9200    0.0000 C.3     1  UNL1        0.0052
     11 C           6.7552   -1.5972    0.0000 C.3     1  UNL1        0.0570
     12 C           3.0473   -2.3608    0.0000 C.3     1  UNL1        0.0586
     13 C           5.6150   -0.1224    0.0000 C.3     1  UNL1       -0.0543
     14 C           4.8386   -3.0202    0.0000 C.3     1  UNL1       -0.0327
     15 C           4.7242    0.8888    0.0000 C.2     1  UNL1       -0.0493
     16 C           5.6377    1.2955    0.0000 C.2     1  UNL1       -0.0598
     17 C           5.7422    2.2900    0.0000 C.2     1  UNL1       -0.0439
     18 C           4.9332    2.8778    0.0000 C.3     1  UNL1       -0.0395
     19 C           6.6558    2.6968    0.0000 C.2     1  UNL1        0.0252
     20 C           7.4648    2.1090    0.0000 C.2     1  UNL1        0.3298
     21 H           3.3179   -0.7795    0.0000 H       1  UNL1        0.0297
     22 H           2.7087   -1.3157    0.0000 H       1  UNL1        0.0297
     23 H           3.4706   -3.3887    0.0000 H       1  UNL1        0.0319
     24 H           4.2930   -3.3791    0.0000 H       1  UNL1        0.0319
     25 H           7.3491   -1.7750    0.0000 H       1  UNL1        0.0566
     26 H           6.9501   -1.0086    0.0000 H       1  UNL1        0.0566
     27 H           2.5939   -1.9379    0.0000 H       1  UNL1        0.0594
     28 H           6.2139   -0.2829    0.0000 H       1  UNL1        0.0237
     29 H           5.7755    0.4764    0.0000 H       1  UNL1        0.0237
     30 H           5.0162    0.0380    0.0000 H       1  UNL1        0.0237
     31 H           4.2397   -2.8598    0.0000 H       1  UNL1        0.0258
     32 H           4.6781   -3.6191    0.0000 H       1  UNL1        0.0258
     33 H           5.4375   -3.1807    0.0000 H       1  UNL1        0.0258
     34 H           4.2226    1.2532    0.0000 H       1  UNL1        0.0601
     35 H           3.2045   -0.0634    0.0000 H       1  UNL1        0.2107
     36 H           2.0000   -3.3134    0.0000 H       1  UNL1        0.2098
     37 H           6.1393    0.9311    0.0000 H       1  UNL1        0.0618
     38 H           5.2976    3.3794    0.0000 H       1  UNL1        0.0278
     39 H           4.4316    3.2422    0.0000 H       1  UNL1        0.0278
     40 H           4.5688    2.3762    0.0000 H       1  UNL1        0.0278
     41 H           6.7206    3.3134    0.0000 H       1  UNL1        0.0691
     42 H           8.8799    2.1513    0.0000 H       1  UNL1        0.2954
@<TRIPOS>BOND
     1     1     8    1
     2     1    11    1
     3     7     2    1
     4     2    35    1
     5    12     3    1
     6     3    36    1
     7     4    20    1
     8     4    42    1
     9     5    20    2
    10     6     7    1
    11     6     9    1
    12     6    11    1
    13     6    13    1
    14     7     8    1
    15     7    15    1
    16     8    10    1
    17     8    14    1
    18     9    12    1
    19     9    21    1
    20     9    22    1
    21    10    12    1
    22    10    23    1
    23    10    24    1
    24    11    25    1
    25    11    26    1
    26    12    27    1
    27    13    28    1
    28    13    29    1
    29    13    30    1
    30    14    31    1
    31    14    32    1
    32    14    33    1
    33    15    16    2
    34    15    34    1
    35    16    17    1
    36    16    37    1
    37    17    18    1
    38    17    19    2
    39    18    38    1
    40    18    39    1
    41    18    40    1
    42    19    20    1
    43    19    41    1
