@<TRIPOS>MOLECULE
IMPHY008343
 40 41 0 0 0
SMALL
GASTEIGER

@<TRIPOS>ATOM
      1 O           6.9473   -0.8047    0.0000 O.3     1  UNL1       -0.4608
      2 O           8.5309    0.0000    0.0000 O.2     1  UNL1       -0.2505
      3 O           3.4030   -2.0000    0.0000 O.2     1  UNL1       -0.2968
      4 C           6.0010    0.5000    0.0000 C.3     1  UNL1        0.0091
      5 C           6.0010   -0.5000    0.0000 C.3     1  UNL1        0.1073
      6 C           6.9473    0.8047    0.0000 C.3     1  UNL1        0.0598
      7 C           5.1350    1.0000    0.0000 C.3     1  UNL1       -0.0424
      8 C           5.1350   -1.0000    0.0000 C.3     1  UNL1       -0.0061
      9 C           4.2690   -0.5000    0.0000 C.3     1  UNL1        0.0183
     10 C           7.5309    0.0000    0.0000 C.2     1  UNL1        0.3106
     11 C           4.2690    0.5000    0.0000 C.3     1  UNL1       -0.0316
     12 C           7.2579    1.7552    0.0000 C.3     1  UNL1       -0.0519
     13 C           3.4030   -1.0000    0.0000 C.2     1  UNL1        0.1400
     14 C           3.4030    1.0000    0.0000 C.2     1  UNL1       -0.0761
     15 C           3.4030    0.0000    0.0000 C.3     1  UNL1       -0.0556
     16 C           2.5369   -0.5000    0.0000 C.3     1  UNL1        0.0245
     17 C           2.5369    0.5000    0.0000 C.2     1  UNL1       -0.0779
     18 C           3.4030    2.0000    0.0000 C.3     1  UNL1       -0.0438
     19 H           6.0910    1.3452    0.0000 H       1  UNL1        0.0344
     20 H           6.0910   -1.3452    0.0000 H       1  UNL1        0.0737
     21 H           6.5098    1.2441    0.0000 H       1  UNL1        0.0415
     22 H           5.5335    1.4750    0.0000 H       1  UNL1        0.0272
     23 H           4.7365    1.4750    0.0000 H       1  UNL1        0.0272
     24 H           4.7365   -1.4750    0.0000 H       1  UNL1        0.0308
     25 H           5.5335   -1.4750    0.0000 H       1  UNL1        0.0308
     26 H           4.5790    0.0369    0.0000 H       1  UNL1        0.0376
     27 H           3.8705    0.0251    0.0000 H       1  UNL1        0.0310
     28 H           4.6675    0.0251    0.0000 H       1  UNL1        0.0310
     29 H           7.8472    1.5626    0.0000 H       1  UNL1        0.0238
     30 H           7.4505    2.3446    0.0000 H       1  UNL1        0.0238
     31 H           6.6686    1.9479    0.0000 H       1  UNL1        0.0238
     32 H           3.7130    0.5369    0.0000 H       1  UNL1        0.0236
     33 H           2.8660    0.3100    0.0000 H       1  UNL1        0.0236
     34 H           3.0930   -0.5369    0.0000 H       1  UNL1        0.0236
     35 H           1.9264   -0.3923    0.0000 H       1  UNL1        0.0384
     36 H           2.3249   -1.0826    0.0000 H       1  UNL1        0.0384
     37 H           2.0000    0.8100    0.0000 H       1  UNL1        0.0576
     38 H           4.0230    2.0000    0.0000 H       1  UNL1        0.0274
     39 H           3.4030    2.6200    0.0000 H       1  UNL1        0.0274
     40 H           2.7830    2.0000    0.0000 H       1  UNL1        0.0274
@<TRIPOS>BOND
     1     1     5    1
     2     1    10    1
     3     2    10    2
     4     3    13    2
     5     4     5    1
     6     4     6    1
     7     4     7    1
     8     4    19    1
     9     5     8    1
    10     5    20    1
    11     6    10    1
    12     6    12    1
    13     6    21    1
    14     7    11    1
    15     7    22    1
    16     7    23    1
    17     8     9    1
    18     8    24    1
    19     8    25    1
    20     9    13    1
    21     9    15    1
    22     9    26    1
    23    11    14    1
    24    11    27    1
    25    11    28    1
    26    12    29    1
    27    12    30    1
    28    12    31    1
    29    13    16    1
    30    14    17    2
    31    14    18    1
    32    15    32    1
    33    15    33    1
    34    15    34    1
    35    16    17    1
    36    16    35    1
    37    16    36    1
    38    17    37    1
    39    18    38    1
    40    18    39    1
    41    18    40    1
