@<TRIPOS>MOLECULE
IMPHY013455
 136 141 0 0 0
SMALL
GASTEIGER

@<TRIPOS>ATOM
      1 O          10.3312    2.0381    0.0000 O.3     1  UNL1       -0.3408
      2 O          11.1972    0.5381    0.0000 O.3     1  UNL1       -0.3412
      3 O          10.3312   -1.9619    0.0000 O.3     1  UNL1       -0.3402
      4 O          10.3312    4.0381    0.0000 O.3     1  UNL1       -0.3408
      5 O          12.9292    2.5381    0.0000 O.3     1  UNL1       -0.3414
      6 O           8.5991   -1.9619    0.0000 O.3     1  UNL1       -0.3405
      7 O          10.3312   -3.9619    0.0000 O.3     1  UNL1       -0.3378
      8 O           8.5991   -0.9619    0.0000 O.3     1  UNL1       -0.3871
      9 O          10.6319    5.7439    0.0000 O.3     1  UNL1       -0.3431
     10 O           8.5991   -4.9619    0.0000 O.3     1  UNL1       -0.3864
     11 O          13.7953    4.0381    0.0000 O.3     1  UNL1       -0.3654
     12 O           6.8671   -3.9619    0.0000 O.3     1  UNL1       -0.3865
     13 O           6.8671   -0.9619    0.0000 O.3     1  UNL1       -0.3460
     14 O          12.9292   -0.4619    0.0000 O.3     1  UNL1       -0.3924
     15 O           9.4651   -5.4619    0.0000 O.3     1  UNL1       -0.3461
     16 O          12.9292    0.5381    0.0000 O.3     1  UNL1       -0.3924
     17 O           8.3616    4.3854    0.0000 O.3     1  UNL1       -0.3841
     18 O           7.6775    6.2648    0.0000 O.3     1  UNL1       -0.3864
     19 O           5.1350   -0.9619    0.0000 O.3     1  UNL1       -0.3405
     20 O           8.9631    7.7969    0.0000 O.3     1  UNL1       -0.3866
     21 O          12.0632   -4.9619    0.0000 O.3     1  UNL1       -0.3841
     22 O          12.0632   -6.9619    0.0000 O.3     1  UNL1       -0.3864
     23 O           6.8671    1.0381    0.0000 O.3     1  UNL1       -0.3841
     24 O          10.3312   -7.9619    0.0000 O.3     1  UNL1       -0.3869
     25 O           9.4651    2.5381    0.0000 O.2     1  UNL1       -0.2761
     26 O           5.1350    2.0381    0.0000 O.3     1  UNL1       -0.3864
     27 O           3.4030    1.0381    0.0000 O.3     1  UNL1       -0.3865
     28 O          13.7953    5.0381    0.0000 O.2     1  UNL1       -0.2761
     29 O           2.5369   -0.4619    0.0000 O.3     1  UNL1       -0.3924
     30 N           8.5991    1.0381    0.0000 N.am    1  UNL1       -0.3053
     31 N          12.0632    5.0381    0.0000 N.am    1  UNL1       -0.3053
     32 C          10.3312   -0.9619    0.0000 C.3     1  UNL1        0.1177
     33 C          11.1972    2.5381    0.0000 C.3     1  UNL1        0.1181
     34 C           9.4651    0.5381    0.0000 C.3     1  UNL1        0.1023
     35 C           9.4651   -0.4619    0.0000 C.3     1  UNL1        0.1069
     36 C          11.1972    3.5381    0.0000 C.3     1  UNL1        0.1134
     37 C          10.3312    1.0381    0.0000 C.3     1  UNL1        0.1808
     38 C          11.1972   -0.4619    0.0000 C.3     1  UNL1        0.1133
     39 C          12.0632    4.0381    0.0000 C.3     1  UNL1        0.1025
     40 C          12.0632    2.0381    0.0000 C.3     1  UNL1        0.1133
     41 C           9.4651   -2.4619    0.0000 C.3     1  UNL1        0.1888
     42 C           9.4651   -3.4619    0.0000 C.3     1  UNL1        0.1406
     43 C           8.5991   -3.9619    0.0000 C.3     1  UNL1        0.1144
     44 C          12.9292    3.5381    0.0000 C.3     1  UNL1        0.1776
     45 C           7.7331   -3.4619    0.0000 C.3     1  UNL1        0.1119
     46 C           7.7331   -2.4619    0.0000 C.3     1  UNL1        0.1134
     47 C           9.9891    4.9778    0.0000 C.3     1  UNL1        0.1883
     48 C          12.0632   -0.9619    0.0000 C.3     1  UNL1        0.0730
     49 C          12.0632    1.0381    0.0000 C.3     1  UNL1        0.0730
     50 C           9.0043    5.1515    0.0000 C.3     1  UNL1        0.1341
     51 C           6.8671   -1.9619    0.0000 C.3     1  UNL1        0.0796
     52 C           8.6623    6.0912    0.0000 C.3     1  UNL1        0.1140
     53 C           9.3051    6.8572    0.0000 C.3     1  UNL1        0.1095
     54 C          10.3312   -4.9619    0.0000 C.3     1  UNL1        0.1881
     55 C          10.2899    6.6836    0.0000 C.3     1  UNL1        0.0873
     56 C          11.1972   -5.4619    0.0000 C.3     1  UNL1        0.1341
     57 C          11.1972   -6.4619    0.0000 C.3     1  UNL1        0.1137
     58 C           8.5991    2.0381    0.0000 C.2     1  UNL1        0.2104
     59 C           6.0010   -0.4619    0.0000 C.3     1  UNL1        0.1880
     60 C           6.0010    0.5381    0.0000 C.3     1  UNL1        0.1341
     61 C          10.3312   -6.9619    0.0000 C.3     1  UNL1        0.1069
     62 C          12.9292    5.5381    0.0000 C.2     1  UNL1        0.2104
     63 C           5.1350    1.0381    0.0000 C.3     1  UNL1        0.1141
     64 C          10.9327    7.4496    0.0000 C.3     1  UNL1       -0.0361
     65 C           9.4651   -6.4619    0.0000 C.3     1  UNL1        0.0792
     66 C           4.2690    0.5381    0.0000 C.3     1  UNL1        0.1119
     67 C           4.2690   -0.4619    0.0000 C.3     1  UNL1        0.1130
     68 C           7.7331    2.5381    0.0000 C.3     1  UNL1        0.0122
     69 C          12.9292    6.5381    0.0000 C.3     1  UNL1        0.0122
     70 C           3.4030   -0.9619    0.0000 C.3     1  UNL1        0.0730
     71 H           9.7942   -1.2719    0.0000 H       1  UNL1        0.0650
     72 H          10.6603    2.8481    0.0000 H       1  UNL1        0.0650
     73 H           9.4651    1.1581    0.0000 H       1  UNL1        0.0575
     74 H           8.9282   -0.1519    0.0000 H       1  UNL1        0.0640
     75 H          11.1972    4.1581    0.0000 H       1  UNL1        0.0644
     76 H           9.7942    1.3481    0.0000 H       1  UNL1        0.0930
     77 H          11.7341   -0.1519    0.0000 H       1  UNL1        0.0647
     78 H          11.5263    4.3481    0.0000 H       1  UNL1        0.0575
     79 H          12.6002    1.7281    0.0000 H       1  UNL1        0.0647
     80 H          10.0021   -2.7719    0.0000 H       1  UNL1        0.0938
     81 H           9.4651   -4.0819    0.0000 H       1  UNL1        0.0675
     82 H           9.1360   -4.2719    0.0000 H       1  UNL1        0.0648
     83 H          12.9292    4.1581    0.0000 H       1  UNL1        0.0928
     84 H           7.7331   -4.0819    0.0000 H       1  UNL1        0.0647
     85 H           7.7331   -1.8419    0.0000 H       1  UNL1        0.0647
     86 H           9.5906    4.5029    0.0000 H       1  UNL1        0.0938
     87 H          11.6647   -1.4368    0.0000 H       1  UNL1        0.0584
     88 H          12.4617   -1.4368    0.0000 H       1  UNL1        0.0584
     89 H           8.0622    0.7281    0.0000 H       1  UNL1        0.1492
     90 H          11.4526    1.1458    0.0000 H       1  UNL1        0.0584
     91 H          11.8512    0.4555    0.0000 H       1  UNL1        0.0584
     92 H           8.3938    5.2591    0.0000 H       1  UNL1        0.0671
     93 H          11.6647    5.5131    0.0000 H       1  UNL1        0.1492
     94 H           6.2565   -1.8542    0.0000 H       1  UNL1        0.0587
     95 H           6.6550   -2.5445    0.0000 H       1  UNL1        0.0587
     96 H           8.4503    6.6738    0.0000 H       1  UNL1        0.0648
     97 H           8.0622   -0.6519    0.0000 H       1  UNL1        0.2100
     98 H           9.7036    7.3322    0.0000 H       1  UNL1        0.0646
     99 H           9.7942   -4.6519    0.0000 H       1  UNL1        0.0937
    100 H          10.9005    6.5759    0.0000 H       1  UNL1        0.0621
    101 H          11.7341   -5.7719    0.0000 H       1  UNL1        0.0671
    102 H           8.0622   -5.2719    0.0000 H       1  UNL1        0.2100
    103 H          11.1972   -7.0819    0.0000 H       1  UNL1        0.0647
    104 H          14.3322    3.7281    0.0000 H       1  UNL1        0.2125
    105 H           6.5380   -0.1519    0.0000 H       1  UNL1        0.0937
    106 H           6.3301   -3.6519    0.0000 H       1  UNL1        0.2100
    107 H           6.0010    1.1581    0.0000 H       1  UNL1        0.0671
    108 H           9.7942   -7.2719    0.0000 H       1  UNL1        0.0643
    109 H           4.5981    1.3481    0.0000 H       1  UNL1        0.0648
    110 H          11.4076    7.0511    0.0000 H       1  UNL1        0.0255
    111 H          11.3312    7.9246    0.0000 H       1  UNL1        0.0255
    112 H          10.4578    7.8481    0.0000 H       1  UNL1        0.0255
    113 H           8.8546   -6.3542    0.0000 H       1  UNL1        0.0587
    114 H           9.2531   -7.0445    0.0000 H       1  UNL1        0.0587
    115 H          13.4662   -0.7719    0.0000 H       1  UNL1        0.2095
    116 H           4.2690    1.1581    0.0000 H       1  UNL1        0.0647
    117 H           4.2690   -1.0819    0.0000 H       1  UNL1        0.0647
    118 H          13.4662    0.8481    0.0000 H       1  UNL1        0.2095
    119 H           7.7510    4.4931    0.0000 H       1  UNL1        0.2101
    120 H           7.4655    6.8474    0.0000 H       1  UNL1        0.2100
    121 H           9.3616    8.2719    0.0000 H       1  UNL1        0.2100
    122 H           8.0431    3.0751    0.0000 H       1  UNL1        0.0322
    123 H           7.1962    2.8481    0.0000 H       1  UNL1        0.0322
    124 H           7.4231    2.0012    0.0000 H       1  UNL1        0.0322
    125 H          13.5492    6.5381    0.0000 H       1  UNL1        0.0322
    126 H          12.9292    7.1581    0.0000 H       1  UNL1        0.0322
    127 H          12.3092    6.5381    0.0000 H       1  UNL1        0.0322
    128 H          12.6002   -5.2719    0.0000 H       1  UNL1        0.2101
    129 H           3.0044   -1.4368    0.0000 H       1  UNL1        0.0584
    130 H           3.8015   -1.4368    0.0000 H       1  UNL1        0.0584
    131 H          12.0632   -7.5819    0.0000 H       1  UNL1        0.2100
    132 H           6.8671    1.6581    0.0000 H       1  UNL1        0.2101
    133 H           9.7942   -8.2719    0.0000 H       1  UNL1        0.2100
    134 H           4.5981    2.3481    0.0000 H       1  UNL1        0.2100
    135 H           3.4030    1.6581    0.0000 H       1  UNL1        0.2100
    136 H           2.0000   -0.7719    0.0000 H       1  UNL1        0.2095
@<TRIPOS>BOND
     1    33     1    1
     2    37     1    1
     3     2    37    1
     4     2    38    1
     5    32     3    1
     6    41     3    1
     7    36     4    1
     8    47     4    1
     9     5    40    1
    10     5    44    1
    11     6    41    1
    12     6    46    1
    13    42     7    1
    14    54     7    1
    15    35     8    1
    16     8    97    1
    17     9    47    1
    18     9    55    1
    19    43    10    1
    20    10   102    1
    21    11    44    1
    22    11   104    1
    23    45    12    1
    24    12   106    1
    25    13    51    1
    26    59    13    1
    27    14    48    1
    28    14   115    1
    29    15    54    1
    30    15    65    1
    31    16    49    1
    32    16   118    1
    33    50    17    1
    34    17   119    1
    35    52    18    1
    36    18   120    1
    37    19    59    1
    38    19    67    1
    39    53    20    1
    40    20   121    1
    41    56    21    1
    42    21   128    1
    43    57    22    1
    44    22   131    1
    45    60    23    1
    46    23   132    1
    47    61    24    1
    48    24   133    1
    49    25    58    2
    50    63    26    1
    51    26   134    1
    52    66    27    1
    53    27   135    1
    54    28    62    2
    55    29    70    1
    56    29   136    1
    57    34    30    1
    58    30    58   am
    59    30    89    1
    60    39    31    1
    61    31    62   am
    62    31    93    1
    63    32    35    1
    64    32    38    1
    65    32    71    1
    66    33    36    1
    67    33    40    1
    68    33    72    1
    69    34    35    1
    70    34    37    1
    71    34    73    1
    72    35    74    1
    73    36    39    1
    74    36    75    1
    75    37    76    1
    76    38    48    1
    77    38    77    1
    78    39    44    1
    79    39    78    1
    80    40    49    1
    81    40    79    1
    82    41    42    1
    83    41    80    1
    84    42    43    1
    85    42    81    1
    86    43    45    1
    87    43    82    1
    88    44    83    1
    89    45    46    1
    90    45    84    1
    91    46    51    1
    92    46    85    1
    93    47    50    1
    94    47    86    1
    95    48    87    1
    96    48    88    1
    97    49    90    1
    98    49    91    1
    99    50    52    1
   100    50    92    1
   101    51    94    1
   102    51    95    1
   103    52    53    1
   104    52    96    1
   105    53    55    1
   106    53    98    1
   107    54    56    1
   108    54    99    1
   109    55    64    1
   110    55   100    1
   111    56    57    1
   112    56   101    1
   113    57    61    1
   114    57   103    1
   115    58    68    1
   116    59    60    1
   117    59   105    1
   118    60    63    1
   119    60   107    1
   120    61    65    1
   121    61   108    1
   122    62    69    1
   123    63    66    1
   124    63   109    1
   125    64   110    1
   126    64   111    1
   127    64   112    1
   128    65   113    1
   129    65   114    1
   130    66    67    1
   131    66   116    1
   132    67    70    1
   133    67   117    1
   134    68   122    1
   135    68   123    1
   136    68   124    1
   137    69   125    1
   138    69   126    1
   139    69   127    1
   140    70   129    1
   141    70   130    1
