@<TRIPOS>MOLECULE
IMPHY012485
 50 54 0 0 0
SMALL
GASTEIGER

@<TRIPOS>ATOM
      1 O           6.5824   -1.8133    0.0000 O.3     1  UNL1       -0.4672
      2 O           4.8506   -1.0832    0.0000 O.2     1  UNL1       -0.2497
      3 O           6.7552    2.7882    0.0000 O.2     1  UNL1       -0.2974
      4 N           5.6708    1.5986    0.0000 N.3     1  UNL1       -0.2967
      5 N           5.0349   -1.5768    0.0000 N.ar    1  UNL1       -0.3568
      6 C           6.2943    0.8168    0.0000 C.3     1  UNL1        0.0411
      7 C           6.0718   -0.1582    0.0000 C.3     1  UNL1        0.1239
      8 C           7.8221   -0.5790    0.0000 C.3     1  UNL1       -0.0261
      9 C           6.8244   -0.8783    0.0000 C.3     1  UNL1       -0.0262
     10 C           7.2848    1.1391    0.0000 C.3     1  UNL1        0.0345
     11 C           8.0538    0.4365    0.0000 C.3     1  UNL1       -0.0380
     12 C           7.3751    1.1308    0.0000 C.3     1  UNL1        0.0021
     13 C           5.1708   -0.5920    0.0000 C.ar    1  UNL1        0.0388
     14 C           4.6708    1.5986    0.0000 C.3     1  UNL1        0.0033
     15 C           4.2699   -0.1582    0.0000 C.ar    1  UNL1       -0.0168
     16 C           5.8493   -1.1331    0.0000 C.2     1  UNL1        0.3205
     17 C           4.0474    0.8168    0.0000 C.3     1  UNL1       -0.0126
     18 C           7.4961    2.1165    0.0000 C.2     1  UNL1        0.1349
     19 C           3.5848   -0.8785    0.0000 C.ar    1  UNL1        0.0032
     20 C           4.0566   -1.7534    0.0000 C.ar    1  UNL1        0.0470
     21 C           8.4482    2.4223    0.0000 C.3     1  UNL1       -0.0057
     22 C           2.5503   -0.8324    0.0000 C.ar    1  UNL1       -0.0523
     23 C           3.5267   -2.6430    0.0000 C.ar    1  UNL1       -0.0378
     24 C           6.3598   -2.7882    0.0000 C.3     1  UNL1        0.0817
     25 C           2.0000   -1.7095    0.0000 C.ar    1  UNL1       -0.0611
     26 C           2.4915   -2.6209    0.0000 C.ar    1  UNL1       -0.0598
     27 H           6.7521    0.3986    0.0000 H       1  UNL1        0.0484
     28 H           8.0371   -1.4014    0.0000 H       1  UNL1        0.0314
     29 H           6.3254   -1.2463    0.0000 H       1  UNL1        0.0283
     30 H           7.1015   -1.4329    0.0000 H       1  UNL1        0.0283
     31 H           6.8247    1.5546    0.0000 H       1  UNL1        0.0393
     32 H           8.6258    0.1972    0.0000 H       1  UNL1        0.0276
     33 H           8.3875    0.9591    0.0000 H       1  UNL1        0.0276
     34 H           7.9930    1.1811    0.0000 H       1  UNL1        0.0429
     35 H           7.4329    1.7481    0.0000 H       1  UNL1        0.0429
     36 H           4.8088    2.2030    0.0000 H       1  UNL1        0.0430
     37 H           4.1123    1.8676    0.0000 H       1  UNL1        0.0430
     38 H           3.6608    1.3015    0.0000 H       1  UNL1        0.0326
     39 H           3.4888    0.5478    0.0000 H       1  UNL1        0.0326
     40 H           5.4822   -2.0060    0.0000 H       1  UNL1        0.1656
     41 H           8.6378    1.8320    0.0000 H       1  UNL1        0.0306
     42 H           9.0385    2.6119    0.0000 H       1  UNL1        0.0306
     43 H           8.2586    3.0126    0.0000 H       1  UNL1        0.0306
     44 H           2.2624   -0.2833    0.0000 H       1  UNL1        0.0624
     45 H           3.8272   -3.1853    0.0000 H       1  UNL1        0.0638
     46 H           5.7554   -2.6502    0.0000 H       1  UNL1        0.0661
     47 H           6.2219   -3.3926    0.0000 H       1  UNL1        0.0661
     48 H           6.9643   -2.9261    0.0000 H       1  UNL1        0.0661
     49 H           1.3803   -1.6891    0.0000 H       1  UNL1        0.0618
     50 H           2.1680   -3.1499    0.0000 H       1  UNL1        0.0618
@<TRIPOS>BOND
     1     1    16    1
     2     1    24    1
     3     2    16    2
     4     3    18    2
     5     4     6    1
     6     4    12    1
     7     4    14    1
     8     5    13   ar
     9     5    20   ar
    10     5    40    1
    11     6     7    1
    12     6    10    1
    13     6    27    1
    14     7     9    1
    15     7    13    1
    16     7    16    1
    17     8     9    1
    18     8    11    1
    19     8    12    1
    20     8    28    1
    21     9    29    1
    22     9    30    1
    23    10    11    1
    24    10    18    1
    25    10    31    1
    26    11    32    1
    27    11    33    1
    28    12    34    1
    29    12    35    1
    30    13    15   ar
    31    14    17    1
    32    14    36    1
    33    14    37    1
    34    15    17    1
    35    15    19   ar
    36    17    38    1
    37    17    39    1
    38    18    21    1
    39    19    20   ar
    40    19    22   ar
    41    20    23   ar
    42    21    41    1
    43    21    42    1
    44    21    43    1
    45    22    25   ar
    46    22    44    1
    47    23    26   ar
    48    23    45    1
    49    24    46    1
    50    24    47    1
    51    24    48    1
    52    25    26   ar
    53    25    49    1
    54    26    50    1
