@<TRIPOS>MOLECULE
IMPHY015670
 17 16 0 0 0
SMALL
GASTEIGER

@<TRIPOS>ATOM
      1 O           4.5981    0.7500    0.0000 O.3     1  UNL1       -0.4649
      2 O           3.7320   -0.7500    0.0000 O.2     1  UNL1       -0.2509
      3 C           2.8660    0.7500    0.0000 C.3     1  UNL1        0.0421
      4 C           5.4641    0.2500    0.0000 C.3     1  UNL1        0.0896
      5 C           3.7320    0.2500    0.0000 C.2     1  UNL1        0.3068
      6 C           2.0000    0.2500    0.0000 C.3     1  UNL1       -0.0552
      7 C           6.3301    0.7500    0.0000 C.3     1  UNL1       -0.0306
      8 H           3.2646    1.2250    0.0000 H       1  UNL1        0.0375
      9 H           2.4675    1.2250    0.0000 H       1  UNL1        0.0375
     10 H           5.0656   -0.2249    0.0000 H       1  UNL1        0.0694
     11 H           5.8626   -0.2249    0.0000 H       1  UNL1        0.0694
     12 H           1.6900    0.7869    0.0000 H       1  UNL1        0.0235
     13 H           1.4631   -0.0600    0.0000 H       1  UNL1        0.0235
     14 H           2.3100   -0.2869    0.0000 H       1  UNL1        0.0235
     15 H           6.6401    0.2131    0.0000 H       1  UNL1        0.0262
     16 H           6.8671    1.0600    0.0000 H       1  UNL1        0.0262
     17 H           6.0201    1.2869    0.0000 H       1  UNL1        0.0262
@<TRIPOS>BOND
     1     1     4    1
     2     1     5    1
     3     2     5    2
     4     3     5    1
     5     3     6    1
     6     3     8    1
     7     3     9    1
     8     4     7    1
     9     4    10    1
    10     4    11    1
    11     6    12    1
    12     6    13    1
    13     6    14    1
    14     7    15    1
    15     7    16    1
    16     7    17    1
