@<TRIPOS>MOLECULE
IMPHY006730
 54 59 0 0 0
SMALL
GASTEIGER

@<TRIPOS>ATOM
      1 O           6.3423    1.3620    0.0000 O.3     1  UNL1       -0.3190
      2 O           4.6512   -1.1070    0.0000 O.3     1  UNL1       -0.4585
      3 O           8.1324    0.7803    0.0000 O.3     1  UNL1       -0.4325
      4 O           3.2568   -0.1608    0.0000 O.3     1  UNL1       -0.4554
      5 O           4.8612    1.7314    0.0000 O.3     1  UNL1       -0.3805
      6 O           5.0470   -1.7424    0.0000 O.3     1  UNL1       -0.3872
      7 O           7.6377   -1.7424    0.0000 O.3     1  UNL1       -0.3798
      8 O           3.7551    0.5464    0.0000 O.2     1  UNL1       -0.2474
      9 O           9.3893   -0.4698    0.0000 O.2     1  UNL1       -0.2478
     10 O           2.0000    1.0894    0.0000 O.2     1  UNL1       -0.2504
     11 C           5.8475   -0.1608    0.0000 C.3     1  UNL1        0.0939
     12 C           6.8371   -0.1608    0.0000 C.3     1  UNL1        0.0875
     13 C           5.5418    0.7803    0.0000 C.3     1  UNL1        0.2140
     14 C           5.5418   -1.1019    0.0000 C.3     1  UNL1        0.1156
     15 C           7.1429   -1.1019    0.0000 C.3     1  UNL1       -0.0176
     16 C           4.5522    0.7803    0.0000 C.3     1  UNL1        0.1577
     17 C           5.0470   -0.7424    0.0000 C.3     1  UNL1        0.1080
     18 C           7.1429    0.7803    0.0000 C.3     1  UNL1        0.2156
     19 C           4.2464   -0.1608    0.0000 C.3     1  UNL1        0.1620
     20 C           6.3423   -1.6836    0.0000 C.3     1  UNL1       -0.0108
     21 C           7.6377   -0.7424    0.0000 C.3     1  UNL1        0.1640
     22 C           4.6512    0.1024    0.0000 C.2     1  UNL1        0.3437
     23 C           8.0939   -1.4109    0.0000 C.3     1  UNL1       -0.0339
     24 C           3.7516    1.3620    0.0000 C.3     1  UNL1        0.0892
     25 C           8.4382   -0.1608    0.0000 C.2     1  UNL1        0.3390
     26 C           2.9511    0.7803    0.0000 C.2     1  UNL1        0.3134
     27 C           9.0450   -1.7200    0.0000 C.3     1  UNL1       -0.0598
     28 C           7.7849   -2.3620    0.0000 C.3     1  UNL1       -0.0598
     29 C           8.9420   -0.8810    0.0000 C.3     1  UNL1       -0.0598
     30 C           3.7516    2.3620    0.0000 C.3     1  UNL1       -0.0494
     31 H           5.2814   -1.9111    0.0000 H       1  UNL1        0.0742
     32 H           7.2758   -1.9414    0.0000 H       1  UNL1        0.0316
     33 H           4.4945   -1.0239    0.0000 H       1  UNL1        0.0639
     34 H           7.4056    1.5887    0.0000 H       1  UNL1        0.1064
     35 H           3.9837   -0.9692    0.0000 H       1  UNL1        0.0791
     36 H           5.9274   -2.1443    0.0000 H       1  UNL1        0.0304
     37 H           6.7572   -2.1443    0.0000 H       1  UNL1        0.0304
     38 H           8.1901   -1.0239    0.0000 H       1  UNL1        0.0718
     39 H           4.3040    1.6435    0.0000 H       1  UNL1        0.0441
     40 H           5.4677    1.8603    0.0000 H       1  UNL1        0.2105
     41 H           4.5100   -2.0524    0.0000 H       1  UNL1        0.2100
     42 H           8.8534   -2.3096    0.0000 H       1  UNL1        0.0235
     43 H           9.6346   -1.9116    0.0000 H       1  UNL1        0.0235
     44 H           9.2366   -1.1303    0.0000 H       1  UNL1        0.0235
     45 H           7.1952   -2.1704    0.0000 H       1  UNL1        0.0235
     46 H           7.5933   -2.9516    0.0000 H       1  UNL1        0.0235
     47 H           8.3746   -2.5536    0.0000 H       1  UNL1        0.0235
     48 H           9.2705   -1.4068    0.0000 H       1  UNL1        0.0235
     49 H           9.4678   -0.5525    0.0000 H       1  UNL1        0.0235
     50 H           8.6134   -0.3552    0.0000 H       1  UNL1        0.0235
     51 H           4.3716    2.3620    0.0000 H       1  UNL1        0.0238
     52 H           3.7516    2.9820    0.0000 H       1  UNL1        0.0238
     53 H           3.1316    2.3620    0.0000 H       1  UNL1        0.0238
     54 H           7.1007   -2.0524    0.0000 H       1  UNL1        0.2105
@<TRIPOS>BOND
     1    13     1    1
     2     1    18    1
     3     2    14    1
     4     2    22    1
     5     3    18    1
     6     3    25    1
     7     4    19    1
     8     4    26    1
     9    16     5    1
    10     5    40    1
    11    17     6    1
    12     6    41    1
    13    21     7    1
    14     7    54    1
    15     8    22    2
    16     9    25    2
    17    10    26    2
    18    11    12    1
    19    11    13    1
    20    11    14    1
    21    11    17    1
    22    12    15    1
    23    12    18    1
    24    12    21    1
    25    13    16    1
    26    13    22    1
    27    14    20    1
    28    14    31    1
    29    15    20    1
    30    15    23    1
    31    15    32    1
    32    16    19    1
    33    16    24    1
    34    17    19    1
    35    17    33    1
    36    18    34    1
    37    19    35    1
    38    20    36    1
    39    20    37    1
    40    21    25    1
    41    21    38    1
    42    23    27    1
    43    23    28    1
    44    23    29    1
    45    24    26    1
    46    24    30    1
    47    24    39    1
    48    27    42    1
    49    27    43    1
    50    27    44    1
    51    28    45    1
    52    28    46    1
    53    28    47    1
    54    29    48    1
    55    29    49    1
    56    29    50    1
    57    30    51    1
    58    30    52    1
    59    30    53    1
