@<TRIPOS>MOLECULE
IMPHY002193
 37 40 0 0 0
SMALL
GASTEIGER

@<TRIPOS>ATOM
      1 O           6.1621   -0.5423    0.0000 O.3     1  UNL1       -0.4830
      2 O           8.3061    1.5262    0.0000 O.3     1  UNL1       -0.4907
      3 O           2.6726    0.3619    0.0000 O.3     1  UNL1       -0.4950
      4 O          10.9457   -0.8180    0.0000 O.3     1  UNL1       -0.4950
      5 C           6.6589    0.9909    0.0000 C.3     1  UNL1        0.0629
      6 C           6.9679    0.0399    0.0000 C.3     1  UNL1        0.1385
      7 C           5.6648    0.9884    0.0000 C.ar    1  UNL1        0.0047
      8 C           7.3280    1.7341    0.0000 C.3     1  UNL1        0.1002
      9 C           7.9460   -0.1680    0.0000 C.ar    1  UNL1        0.0352
     10 C           5.3584    0.0427    0.0000 C.ar    1  UNL1        0.1286
     11 C           8.6152    0.5751    0.0000 C.ar    1  UNL1        0.1307
     12 C           4.9832    1.7679    0.0000 C.ar    1  UNL1       -0.0511
     13 C           8.2526   -1.1635    0.0000 C.ar    1  UNL1       -0.0481
     14 C           4.3492   -0.1891    0.0000 C.ar    1  UNL1        0.0221
     15 C           9.6372    0.3743    0.0000 C.ar    1  UNL1        0.0222
     16 C           3.9689    1.5595    0.0000 C.ar    1  UNL1       -0.0195
     17 C           3.6498    0.5744    0.0000 C.ar    1  UNL1        0.1236
     18 C           9.2698   -1.3879    0.0000 C.ar    1  UNL1       -0.0193
     19 C           9.9668   -0.6139    0.0000 C.ar    1  UNL1        0.1236
     20 C           2.0000    1.1019    0.0000 C.3     1  UNL1        0.0788
     21 C          11.2584   -1.7679    0.0000 C.3     1  UNL1        0.0788
     22 H           6.3121    1.7670    0.0000 H       1  UNL1        0.0423
     23 H           7.1435   -0.7918    0.0000 H       1  UNL1        0.0793
     24 H           7.5602    2.3089    0.0000 H       1  UNL1        0.0704
     25 H           6.8022    2.0626    0.0000 H       1  UNL1        0.0704
     26 H           5.1811    2.3554    0.0000 H       1  UNL1        0.0623
     27 H           7.8324   -1.6194    0.0000 H       1  UNL1        0.0624
     28 H           4.1650   -0.7811    0.0000 H       1  UNL1        0.0691
     29 H          10.0467    0.8398    0.0000 H       1  UNL1        0.0691
     30 H           3.5554    2.0215    0.0000 H       1  UNL1        0.0654
     31 H           9.4591   -1.9783    0.0000 H       1  UNL1        0.0654
     32 H           2.4588    1.5189    0.0000 H       1  UNL1        0.0660
     33 H           1.5830    1.5607    0.0000 H       1  UNL1        0.0660
     34 H           1.5412    0.6849    0.0000 H       1  UNL1        0.0660
     35 H          10.6695   -1.9617    0.0000 H       1  UNL1        0.0660
     36 H          11.4522   -2.3568    0.0000 H       1  UNL1        0.0660
     37 H          11.8473   -1.5740    0.0000 H       1  UNL1        0.0660
@<TRIPOS>BOND
     1     1     6    1
     2     1    10    1
     3     2     8    1
     4     2    11    1
     5     3    17    1
     6     3    20    1
     7     4    19    1
     8     4    21    1
     9     5     6    1
    10     5     7    1
    11     5     8    1
    12     5    22    1
    13     6     9    1
    14     6    23    1
    15     7    10   ar
    16     7    12   ar
    17     8    24    1
    18     8    25    1
    19     9    11   ar
    20     9    13   ar
    21    10    14   ar
    22    11    15   ar
    23    12    16   ar
    24    12    26    1
    25    13    18   ar
    26    13    27    1
    27    14    17   ar
    28    14    28    1
    29    15    19   ar
    30    15    29    1
    31    16    17   ar
    32    16    30    1
    33    18    19   ar
    34    18    31    1
    35    20    32    1
    36    20    33    1
    37    20    34    1
    38    21    35    1
    39    21    36    1
    40    21    37    1
