@<TRIPOS>MOLECULE
IMPHY014580
 51 52 0 0 0
SMALL
GASTEIGER

@<TRIPOS>ATOM
      1 O           7.2764   -0.8047    0.0000 O.3     1  UNL1       -0.4565
      2 O           4.8213    0.2340    0.0000 O.3     1  UNL1       -0.4608
      3 O           8.8600   -0.0000    0.0000 O.2     1  UNL1       -0.2505
      4 O           3.7320   -2.0000    0.0000 O.3     1  UNL1       -0.4604
      5 O           3.1936   -0.3582    0.0000 O.2     1  UNL1       -0.2512
      6 O           2.0000   -2.0000    0.0000 O.2     1  UNL1       -0.2512
      7 C           6.3301    0.5000    0.0000 C.3     1  UNL1        0.0498
      8 C           7.2764    0.8047    0.0000 C.3     1  UNL1        0.0635
      9 C           6.3301   -0.5000    0.0000 C.3     1  UNL1        0.1285
     10 C           5.4641    1.0000    0.0000 C.3     1  UNL1        0.1139
     11 C           5.4641    2.0000    0.0000 C.3     1  UNL1        0.0057
     12 C           7.8600   -0.0000    0.0000 C.2     1  UNL1        0.3110
     13 C           5.4641   -1.0000    0.0000 C.2     1  UNL1       -0.0411
     14 C           7.5870    1.7552    0.0000 C.3     1  UNL1       -0.0518
     15 C           4.5981    2.5000    0.0000 C.2     1  UNL1       -0.0730
     16 C           4.5981   -0.5000    0.0000 C.2     1  UNL1       -0.0328
     17 C           4.5981    0.5000    0.0000 C.3     1  UNL1       -0.0250
     18 C           3.7320    1.0000    0.0000 C.3     1  UNL1       -0.0307
     19 C           3.7320    2.0000    0.0000 C.2     1  UNL1       -0.0846
     20 C           3.7320   -1.0000    0.0000 C.3     1  UNL1        0.1137
     21 C           4.5981    3.5000    0.0000 C.3     1  UNL1       -0.0437
     22 C           3.8365    0.4077    0.0000 C.2     1  UNL1        0.3042
     23 C           3.0705    1.0506    0.0000 C.3     1  UNL1        0.0332
     24 C           2.8660   -2.5000    0.0000 C.2     1  UNL1        0.3042
     25 C           2.8660   -3.5000    0.0000 C.3     1  UNL1        0.0332
     26 H           6.4201    1.3452    0.0000 H       1  UNL1        0.0384
     27 H           6.8389    1.2441    0.0000 H       1  UNL1        0.0416
     28 H           6.4201   -1.3452    0.0000 H       1  UNL1        0.0783
     29 H           4.8815    1.2121    0.0000 H       1  UNL1        0.0741
     30 H           6.0747    1.8923    0.0000 H       1  UNL1        0.0346
     31 H           5.6762    2.5826    0.0000 H       1  UNL1        0.0346
     32 H           5.4641   -1.6200    0.0000 H       1  UNL1        0.0609
     33 H           8.1763    1.5626    0.0000 H       1  UNL1        0.0238
     34 H           7.7796    2.3446    0.0000 H       1  UNL1        0.0238
     35 H           6.9977    1.9479    0.0000 H       1  UNL1        0.0238
     36 H           5.2087    0.3923    0.0000 H       1  UNL1        0.0314
     37 H           4.8101    1.0826    0.0000 H       1  UNL1        0.0314
     38 H           3.1215    1.1077    0.0000 H       1  UNL1        0.0310
     39 H           3.5200    0.4174    0.0000 H       1  UNL1        0.0310
     40 H           3.1951    2.3100    0.0000 H       1  UNL1        0.0572
     41 H           3.5200   -0.4174    0.0000 H       1  UNL1        0.0745
     42 H           3.1215   -1.1077    0.0000 H       1  UNL1        0.0745
     43 H           5.2181    3.5000    0.0000 H       1  UNL1        0.0274
     44 H           4.5981    4.1200    0.0000 H       1  UNL1        0.0274
     45 H           3.9781    3.5000    0.0000 H       1  UNL1        0.0274
     46 H           3.4691    1.5255    0.0000 H       1  UNL1        0.0342
     47 H           2.5956    1.4492    0.0000 H       1  UNL1        0.0342
     48 H           2.6719    0.5757    0.0000 H       1  UNL1        0.0342
     49 H           2.2460   -3.5000    0.0000 H       1  UNL1        0.0342
     50 H           2.8660   -4.1200    0.0000 H       1  UNL1        0.0342
     51 H           3.4860   -3.5000    0.0000 H       1  UNL1        0.0342
@<TRIPOS>BOND
     1     1     9    1
     2     1    12    1
     3    10     2    1
     4     2    22    1
     5     3    12    2
     6     4    20    1
     7     4    24    1
     8     5    22    2
     9     6    24    2
    10     7     8    1
    11     7     9    1
    12     7    10    1
    13     7    26    1
    14     8    12    1
    15     8    14    1
    16     8    27    1
    17     9    13    1
    18     9    28    1
    19    10    11    1
    20    10    29    1
    21    11    15    1
    22    11    30    1
    23    11    31    1
    24    13    16    2
    25    13    32    1
    26    14    33    1
    27    14    34    1
    28    14    35    1
    29    15    19    2
    30    15    21    1
    31    16    17    1
    32    16    20    1
    33    17    18    1
    34    17    36    1
    35    17    37    1
    36    18    19    1
    37    18    38    1
    38    18    39    1
    39    19    40    1
    40    20    41    1
    41    20    42    1
    42    21    43    1
    43    21    44    1
    44    21    45    1
    45    22    23    1
    46    23    46    1
    47    23    47    1
    48    23    48    1
    49    24    25    1
    50    25    49    1
    51    25    50    1
    52    25    51    1
