@<TRIPOS>MOLECULE
IMPHY012126
 26 25 0 0 0
SMALL
GASTEIGER

@<TRIPOS>ATOM
      1 C           3.7320    0.2500    0.0000 C.3     1  UNL1       -0.0505
      2 C           4.5981   -0.2500    0.0000 C.3     1  UNL1       -0.0505
      3 C           2.8660   -0.2500    0.0000 C.3     1  UNL1       -0.0467
      4 C           5.4641    0.2500    0.0000 C.3     1  UNL1       -0.0467
      5 C           2.0000    0.2500    0.0000 C.3     1  UNL1       -0.0627
      6 C           2.8660   -1.2500    0.0000 C.3     1  UNL1       -0.0627
      7 C           6.3301   -0.2500    0.0000 C.3     1  UNL1       -0.0627
      8 C           5.4641    1.2500    0.0000 C.3     1  UNL1       -0.0627
      9 H           4.1306    0.7249    0.0000 H       1  UNL1        0.0268
     10 H           3.3335    0.7249    0.0000 H       1  UNL1        0.0268
     11 H           4.1996   -0.7249    0.0000 H       1  UNL1        0.0268
     12 H           4.9966   -0.7249    0.0000 H       1  UNL1        0.0268
     13 H           2.8660    0.3700    0.0000 H       1  UNL1        0.0295
     14 H           5.4641   -0.3700    0.0000 H       1  UNL1        0.0295
     15 H           2.3100    0.7869    0.0000 H       1  UNL1        0.0232
     16 H           1.4631    0.5600    0.0000 H       1  UNL1        0.0232
     17 H           1.6900   -0.2869    0.0000 H       1  UNL1        0.0232
     18 H           2.2460   -1.2500    0.0000 H       1  UNL1        0.0232
     19 H           2.8660   -1.8700    0.0000 H       1  UNL1        0.0232
     20 H           3.4860   -1.2500    0.0000 H       1  UNL1        0.0232
     21 H           6.0201   -0.7869    0.0000 H       1  UNL1        0.0232
     22 H           6.8671   -0.5600    0.0000 H       1  UNL1        0.0232
     23 H           6.6401    0.2869    0.0000 H       1  UNL1        0.0232
     24 H           6.0841    1.2500    0.0000 H       1  UNL1        0.0232
     25 H           5.4641    1.8700    0.0000 H       1  UNL1        0.0232
     26 H           4.8441    1.2500    0.0000 H       1  UNL1        0.0232
@<TRIPOS>BOND
     1     1     2    1
     2     1     3    1
     3     1     9    1
     4     1    10    1
     5     2     4    1
     6     2    11    1
     7     2    12    1
     8     3     5    1
     9     3     6    1
    10     3    13    1
    11     4     7    1
    12     4     8    1
    13     4    14    1
    14     5    15    1
    15     5    16    1
    16     5    17    1
    17     6    18    1
    18     6    19    1
    19     6    20    1
    20     7    21    1
    21     7    22    1
    22     7    23    1
    23     8    24    1
    24     8    25    1
    25     8    26    1
