@<TRIPOS>MOLECULE
IMPHY011083
 48 49 0 0 0
SMALL
GASTEIGER

@<TRIPOS>ATOM
      1 O           5.6761   -0.8169    0.0000 O.3     1  UNL1       -0.4605
      2 O           2.3100    0.5491    0.0000 O.3     1  UNL1       -0.3887
      3 O           4.1760   -1.6830    0.0000 O.2     1  UNL1       -0.2512
      4 C           6.0420    1.5490    0.0000 C.3     1  UNL1       -0.0219
      5 C           6.0420    0.5490    0.0000 C.3     1  UNL1        0.0227
      6 C           4.3100    0.5490    0.0000 C.3     1  UNL1        0.0250
      7 C           5.1760    0.0490    0.0000 C.3     1  UNL1        0.1154
      8 C           5.1760    2.0490    0.0000 C.3     1  UNL1       -0.0465
      9 C           4.3100    1.5490    0.0000 C.3     1  UNL1       -0.0437
     10 C           6.9360    2.0837    0.0000 C.3     1  UNL1       -0.0435
     11 C           3.3100    0.5491    0.0000 C.3     1  UNL1        0.0667
     12 C           6.9360    0.0144    0.0000 C.2     1  UNL1       -0.0694
     13 C           6.0420    2.5490    0.0000 C.3     1  UNL1       -0.0589
     14 C           7.8420    1.5698    0.0000 C.3     1  UNL1       -0.0340
     15 C           7.8420    0.5282    0.0000 C.2     1  UNL1       -0.0846
     16 C           3.3100    1.5490    0.0000 C.3     1  UNL1       -0.0360
     17 C           3.3100   -0.4510    0.0000 C.3     1  UNL1       -0.0360
     18 C           6.9244   -0.9856    0.0000 C.3     1  UNL1       -0.0434
     19 C           5.1760   -1.6830    0.0000 C.2     1  UNL1        0.3042
     20 C           5.6761   -2.5490    0.0000 C.3     1  UNL1        0.0332
     21 H           6.0355   -0.3009    0.0000 H       1  UNL1        0.0387
     22 H           3.7090    1.1501    0.0000 H       1  UNL1        0.0364
     23 H           4.7376   -0.3894    0.0000 H       1  UNL1        0.0744
     24 H           5.5745    2.5240    0.0000 H       1  UNL1        0.0271
     25 H           4.7775    2.5240    0.0000 H       1  UNL1        0.0271
     26 H           4.0979    2.1316    0.0000 H       1  UNL1        0.0270
     27 H           3.6994    1.4414    0.0000 H       1  UNL1        0.0270
     28 H           7.3296    2.5627    0.0000 H       1  UNL1        0.0274
     29 H           6.5314    2.5535    0.0000 H       1  UNL1        0.0274
     30 H           6.6620    2.5490    0.0000 H       1  UNL1        0.0235
     31 H           6.0420    3.1690    0.0000 H       1  UNL1        0.0235
     32 H           5.4220    2.5490    0.0000 H       1  UNL1        0.0235
     33 H           8.4529    1.4638    0.0000 H       1  UNL1        0.0308
     34 H           8.0511    2.1535    0.0000 H       1  UNL1        0.0308
     35 H           8.3778    0.2162    0.0000 H       1  UNL1        0.0572
     36 H           3.9300    1.5490    0.0000 H       1  UNL1        0.0257
     37 H           3.3100    2.1690    0.0000 H       1  UNL1        0.0257
     38 H           2.6900   -0.4510    0.0000 H       1  UNL1        0.0257
     39 H           2.6900    1.5490    0.0000 H       1  UNL1        0.0257
     40 H           3.3101   -1.0710    0.0000 H       1  UNL1        0.0257
     41 H           3.9300   -0.4510    0.0000 H       1  UNL1        0.0257
     42 H           6.3045   -0.9784    0.0000 H       1  UNL1        0.0274
     43 H           6.9172   -1.6055    0.0000 H       1  UNL1        0.0274
     44 H           7.5444   -0.9927    0.0000 H       1  UNL1        0.0274
     45 H           2.0000    1.0860    0.0000 H       1  UNL1        0.2101
     46 H           5.1391   -2.8590    0.0000 H       1  UNL1        0.0342
     47 H           5.9861   -3.0860    0.0000 H       1  UNL1        0.0342
     48 H           6.2130   -2.2390    0.0000 H       1  UNL1        0.0342
@<TRIPOS>BOND
     1     1     7    1
     2     1    19    1
     3     2    11    1
     4     2    45    1
     5     3    19    2
     6     4     5    1
     7     4     8    1
     8     4    10    1
     9     4    13    1
    10     5     7    1
    11     5    12    1
    12     5    21    1
    13     6     7    1
    14     6     9    1
    15     6    11    1
    16     6    22    1
    17     7    23    1
    18     8     9    1
    19     8    24    1
    20     8    25    1
    21     9    26    1
    22     9    27    1
    23    10    14    1
    24    10    28    1
    25    10    29    1
    26    11    16    1
    27    11    17    1
    28    12    15    2
    29    12    18    1
    30    13    30    1
    31    13    31    1
    32    13    32    1
    33    14    15    1
    34    14    33    1
    35    14    34    1
    36    15    35    1
    37    16    36    1
    38    16    37    1
    39    16    39    1
    40    17    38    1
    41    17    40    1
    42    17    41    1
    43    18    42    1
    44    18    43    1
    45    18    44    1
    46    19    20    1
    47    20    46    1
    48    20    47    1
    49    20    48    1
