@<TRIPOS>MOLECULE
IMPHY001887
 82 85 0 0 0
SMALL
GASTEIGER

@<TRIPOS>ATOM
      1 O           7.7991    1.2654    0.0000 O.3     1  UNL1       -0.3915
      2 O           5.0959   -1.2654    0.0000 O.3     1  UNL1       -0.3915
      3 O           2.5369    3.2896    0.0000 O.3     1  UNL1       -0.3912
      4 O          10.3580   -3.2896    0.0000 O.3     1  UNL1       -0.3912
      5 C           5.1350    1.7896    0.0000 C.3     1  UNL1       -0.0234
      6 C           7.7600   -1.7896    0.0000 C.3     1  UNL1       -0.0234
      7 C           5.1350    2.7896    0.0000 C.3     1  UNL1       -0.0277
      8 C           7.7600   -2.7896    0.0000 C.3     1  UNL1       -0.0277
      9 C           6.0290    1.2549    0.0000 C.3     1  UNL1       -0.0093
     10 C           6.8660   -1.2549    0.0000 C.3     1  UNL1       -0.0093
     11 C           4.2690    3.2896    0.0000 C.3     1  UNL1       -0.0056
     12 C           8.6260   -3.2896    0.0000 C.3     1  UNL1       -0.0056
     13 C           6.0174    0.2550    0.0000 C.3     1  UNL1       -0.0470
     14 C           6.8776   -0.2550    0.0000 C.3     1  UNL1       -0.0470
     15 C           4.2690    1.2896    0.0000 C.3     1  UNL1       -0.0447
     16 C           8.6260   -1.2896    0.0000 C.3     1  UNL1       -0.0447
     17 C           6.0290    3.3242    0.0000 C.3     1  UNL1       -0.0468
     18 C           6.8660   -3.3242    0.0000 C.3     1  UNL1       -0.0468
     19 C           6.9350    1.7688    0.0000 C.3     1  UNL1        0.0586
     20 C           5.9600   -1.7688    0.0000 C.3     1  UNL1        0.0586
     21 C           3.4030    2.7896    0.0000 C.3     1  UNL1        0.0606
     22 C           9.4920   -2.7896    0.0000 C.3     1  UNL1        0.0606
     23 C           6.9350    2.8104    0.0000 C.3     1  UNL1       -0.0263
     24 C           5.9600   -2.8104    0.0000 C.3     1  UNL1       -0.0263
     25 C           3.4030    1.7896    0.0000 C.3     1  UNL1       -0.0258
     26 C           9.4920   -1.7896    0.0000 C.3     1  UNL1       -0.0258
     27 C           5.1350    0.7896    0.0000 C.3     1  UNL1       -0.0590
     28 C           7.7600   -0.7896    0.0000 C.3     1  UNL1       -0.0590
     29 C           3.7690    4.1556    0.0000 C.3     1  UNL1       -0.0572
     30 C           4.7690    4.1556    0.0000 C.3     1  UNL1       -0.0572
     31 C           9.1260   -4.1556    0.0000 C.3     1  UNL1       -0.0572
     32 C           8.1260   -4.1556    0.0000 C.3     1  UNL1       -0.0572
     33 H           5.1285    3.6396    0.0000 H       1  UNL1        0.0312
     34 H           7.7665   -3.6396    0.0000 H       1  UNL1        0.0312
     35 H           6.5629    0.9398    0.0000 H       1  UNL1        0.0331
     36 H           6.3321   -0.9398    0.0000 H       1  UNL1        0.0331
     37 H           5.4081    0.3697    0.0000 H       1  UNL1        0.0269
     38 H           5.7986   -0.3251    0.0000 H       1  UNL1        0.0269
     39 H           7.4869   -0.3697    0.0000 H       1  UNL1        0.0269
     40 H           7.0964    0.3251    0.0000 H       1  UNL1        0.0269
     41 H           3.8705    0.8146    0.0000 H       1  UNL1        0.0271
     42 H           4.6675    0.8146    0.0000 H       1  UNL1        0.0271
     43 H           9.0245   -0.8146    0.0000 H       1  UNL1        0.0271
     44 H           8.2274   -0.8146    0.0000 H       1  UNL1        0.0271
     45 H           6.4226    3.8033    0.0000 H       1  UNL1        0.0269
     46 H           5.6244    3.7940    0.0000 H       1  UNL1        0.0269
     47 H           6.4724   -3.8033    0.0000 H       1  UNL1        0.0269
     48 H           7.2706   -3.7940    0.0000 H       1  UNL1        0.0269
     49 H           7.4726    2.0777    0.0000 H       1  UNL1        0.0596
     50 H           5.9635   -1.1488    0.0000 H       1  UNL1        0.0596
     51 H           3.4030    3.4096    0.0000 H       1  UNL1        0.0599
     52 H          10.0289   -2.4796    0.0000 H       1  UNL1        0.0599
     53 H           7.5459    2.7043    0.0000 H       1  UNL1        0.0290
     54 H           7.1441    3.3941    0.0000 H       1  UNL1        0.0290
     55 H           5.3491   -2.7043    0.0000 H       1  UNL1        0.0290
     56 H           5.7509   -3.3941    0.0000 H       1  UNL1        0.0290
     57 H           2.7924    1.8972    0.0000 H       1  UNL1        0.0290
     58 H           3.1909    1.2070    0.0000 H       1  UNL1        0.0290
     59 H          10.1026   -1.8972    0.0000 H       1  UNL1        0.0290
     60 H           9.7041   -1.2070    0.0000 H       1  UNL1        0.0290
     61 H           4.5150    0.7896    0.0000 H       1  UNL1        0.0235
     62 H           5.1350    0.1696    0.0000 H       1  UNL1        0.0235
     63 H           5.7550    0.7896    0.0000 H       1  UNL1        0.0235
     64 H           8.3800   -0.7896    0.0000 H       1  UNL1        0.0235
     65 H           7.7600   -0.1696    0.0000 H       1  UNL1        0.0235
     66 H           7.1400   -0.7896    0.0000 H       1  UNL1        0.0235
     67 H           5.3059    3.8456    0.0000 H       1  UNL1        0.0236
     68 H           5.0790    4.6926    0.0000 H       1  UNL1        0.0236
     69 H           8.5890   -4.4656    0.0000 H       1  UNL1        0.0236
     70 H           9.4360   -4.6926    0.0000 H       1  UNL1        0.0236
     71 H           4.3059    4.4656    0.0000 H       1  UNL1        0.0236
     72 H           3.4590    4.6926    0.0000 H       1  UNL1        0.0236
     73 H           4.2320    4.4656    0.0000 H       1  UNL1        0.0236
     74 H           3.2320    3.8456    0.0000 H       1  UNL1        0.0236
     75 H           9.6629   -3.8456    0.0000 H       1  UNL1        0.0236
     76 H           7.5890   -3.8456    0.0000 H       1  UNL1        0.0236
     77 H           7.8160   -4.6926    0.0000 H       1  UNL1        0.0236
     78 H           8.6629   -4.4656    0.0000 H       1  UNL1        0.0236
     79 H           8.3372    1.5734    0.0000 H       1  UNL1        0.2098
     80 H           4.5577   -1.5734    0.0000 H       1  UNL1        0.2098
     81 H           2.0000    2.9796    0.0000 H       1  UNL1        0.2098
     82 H          10.8950   -2.9796    0.0000 H       1  UNL1        0.2098
@<TRIPOS>BOND
     1    19     1    1
     2     1    79    1
     3    20     2    1
     4     2    80    1
     5    21     3    1
     6     3    81    1
     7    22     4    1
     8     4    82    1
     9     5     7    1
    10     5     9    1
    11     5    15    1
    12     5    27    1
    13     6     8    1
    14     6    10    1
    15     6    16    1
    16     6    28    1
    17     7    11    1
    18     7    17    1
    19     7    33    1
    20     8    12    1
    21     8    18    1
    22     8    34    1
    23     9    13    1
    24     9    19    1
    25     9    35    1
    26    10    14    1
    27    10    20    1
    28    10    36    1
    29    11    21    1
    30    11    29    1
    31    11    30    1
    32    12    22    1
    33    12    31    1
    34    12    32    1
    35    13    14    1
    36    13    37    1
    37    13    38    1
    38    14    39    1
    39    14    40    1
    40    15    25    1
    41    15    41    1
    42    15    42    1
    43    16    26    1
    44    16    43    1
    45    16    44    1
    46    17    23    1
    47    17    45    1
    48    17    46    1
    49    18    24    1
    50    18    47    1
    51    18    48    1
    52    19    23    1
    53    19    49    1
    54    20    24    1
    55    20    50    1
    56    21    25    1
    57    21    51    1
    58    22    26    1
    59    22    52    1
    60    23    53    1
    61    23    54    1
    62    24    55    1
    63    24    56    1
    64    25    57    1
    65    25    58    1
    66    26    59    1
    67    26    60    1
    68    27    61    1
    69    27    62    1
    70    27    63    1
    71    28    64    1
    72    28    65    1
    73    28    66    1
    74    29    71    1
    75    29    72    1
    76    29    74    1
    77    30    67    1
    78    30    68    1
    79    30    73    1
    80    31    69    1
    81    31    70    1
    82    31    75    1
    83    32    76    1
    84    32    77    1
    85    32    78    1
