@<TRIPOS>MOLECULE
IMPHY016471
 23 22 0 0 0
SMALL
GASTEIGER

@<TRIPOS>ATOM
      1 O           3.7320   -1.2500    0.0000 O.2     1  UNL1       -0.2971
      2 C           4.5981    0.2500    0.0000 C.3     1  UNL1        0.0242
      3 C           2.8660    0.2500    0.0000 C.3     1  UNL1        0.0033
      4 C           3.7320   -0.2500    0.0000 C.2     1  UNL1        0.1368
      5 C           5.4641   -0.2500    0.0000 C.2     1  UNL1       -0.0782
      6 C           6.3301    0.2500    0.0000 C.2     1  UNL1       -0.0792
      7 C           2.0000   -0.2500    0.0000 C.3     1  UNL1       -0.0586
      8 C           7.1962   -0.2500    0.0000 C.3     1  UNL1       -0.0440
      9 C           6.3301    1.2500    0.0000 C.3     1  UNL1       -0.0440
     10 H           4.9966    0.7249    0.0000 H       1  UNL1        0.0384
     11 H           4.1996    0.7249    0.0000 H       1  UNL1        0.0384
     12 H           3.2646    0.7249    0.0000 H       1  UNL1        0.0339
     13 H           2.4675    0.7249    0.0000 H       1  UNL1        0.0339
     14 H           5.4641   -0.8700    0.0000 H       1  UNL1        0.0576
     15 H           1.6900    0.2869    0.0000 H       1  UNL1        0.0234
     16 H           1.4631   -0.5600    0.0000 H       1  UNL1        0.0234
     17 H           2.3100   -0.7869    0.0000 H       1  UNL1        0.0234
     18 H           6.8862   -0.7869    0.0000 H       1  UNL1        0.0274
     19 H           7.7331   -0.5600    0.0000 H       1  UNL1        0.0274
     20 H           7.5062    0.2869    0.0000 H       1  UNL1        0.0274
     21 H           6.9501    1.2500    0.0000 H       1  UNL1        0.0274
     22 H           6.3301    1.8700    0.0000 H       1  UNL1        0.0274
     23 H           5.7101    1.2500    0.0000 H       1  UNL1        0.0274
@<TRIPOS>BOND
     1     1     4    2
     2     2     4    1
     3     2     5    1
     4     2    10    1
     5     2    11    1
     6     3     4    1
     7     3     7    1
     8     3    12    1
     9     3    13    1
    10     5     6    2
    11     5    14    1
    12     6     8    1
    13     6     9    1
    14     7    15    1
    15     7    16    1
    16     7    17    1
    17     8    18    1
    18     8    19    1
    19     8    20    1
    20     9    21    1
    21     9    22    1
    22     9    23    1
