@<TRIPOS>MOLECULE
IMPHY016002
 25 24 0 0 0
SMALL
GASTEIGER

@<TRIPOS>ATOM
      1 O           2.0000   -1.0000    0.0000 O.3     1  UNL1       -0.3910
      2 C           6.3301    0.5000    0.0000 C.3     1  UNL1       -0.0530
      3 C           5.4641    1.0000    0.0000 C.3     1  UNL1       -0.0496
      4 C           7.1962    1.0000    0.0000 C.3     1  UNL1       -0.0559
      5 C           4.5981    0.5000    0.0000 C.3     1  UNL1       -0.0347
      6 C           8.0622    0.5000    0.0000 C.3     1  UNL1       -0.0653
      7 C           3.7320    1.0000    0.0000 C.2     1  UNL1       -0.0858
      8 C           2.8660    0.5000    0.0000 C.2     1  UNL1       -0.0629
      9 C           2.8660   -0.5000    0.0000 C.3     1  UNL1        0.0624
     10 H           5.9316    0.0251    0.0000 H       1  UNL1        0.0265
     11 H           6.7287    0.0251    0.0000 H       1  UNL1        0.0265
     12 H           5.8626    1.4750    0.0000 H       1  UNL1        0.0268
     13 H           5.0656    1.4750    0.0000 H       1  UNL1        0.0268
     14 H           7.5947    1.4750    0.0000 H       1  UNL1        0.0263
     15 H           6.7976    1.4750    0.0000 H       1  UNL1        0.0263
     16 H           4.1996    0.0251    0.0000 H       1  UNL1        0.0307
     17 H           4.9966    0.0251    0.0000 H       1  UNL1        0.0307
     18 H           7.7522   -0.0369    0.0000 H       1  UNL1        0.0230
     19 H           8.5991    0.1900    0.0000 H       1  UNL1        0.0230
     20 H           8.3722    1.0369    0.0000 H       1  UNL1        0.0230
     21 H           3.7320    1.6200    0.0000 H       1  UNL1        0.0570
     22 H           2.3291    0.8100    0.0000 H       1  UNL1        0.0591
     23 H           3.0781   -1.0826    0.0000 H       1  UNL1        0.0601
     24 H           3.4766   -0.3923    0.0000 H       1  UNL1        0.0601
     25 H           2.0000   -1.6200    0.0000 H       1  UNL1        0.2098
@<TRIPOS>BOND
     1     1     9    1
     2     1    25    1
     3     2     3    1
     4     2     4    1
     5     2    10    1
     6     2    11    1
     7     3     5    1
     8     3    12    1
     9     3    13    1
    10     4     6    1
    11     4    14    1
    12     4    15    1
    13     5     7    1
    14     5    16    1
    15     5    17    1
    16     6    18    1
    17     6    19    1
    18     6    20    1
    19     7     8    2
    20     7    21    1
    21     8     9    1
    22     8    22    1
    23     9    23    1
    24     9    24    1
