@<TRIPOS>MOLECULE
IMPHY002728
 133 141 0 0 0
SMALL
GASTEIGER

@<TRIPOS>ATOM
      1 O          14.3523    4.0403    0.0000 O.3     1  UNL1       -0.3448
      2 O          12.5799    4.9351    0.0000 O.3     1  UNL1       -0.3480
      3 O          12.9292   -4.2038    0.0000 O.3     1  UNL1       -0.3454
      4 O          11.1972   -4.2038    0.0000 O.3     1  UNL1       -0.3405
      5 O          12.9292   -6.2038    0.0000 O.3     1  UNL1       -0.3841
      6 O          11.1972   -7.2038    0.0000 O.3     1  UNL1       -0.3864
      7 O           9.4651   -6.2038    0.0000 O.3     1  UNL1       -0.3401
      8 O           9.4651   -3.2038    0.0000 O.3     1  UNL1       -0.3924
      9 O           8.5991   -4.7038    0.0000 O.3     1  UNL1       -0.3405
     10 O           7.7331   -7.2038    0.0000 O.3     1  UNL1       -0.3841
     11 O           6.0010   -6.2038    0.0000 O.3     1  UNL1       -0.3401
     12 O           6.0010   -4.2038    0.0000 O.3     1  UNL1       -0.3865
     13 O           6.8671   -2.7038    0.0000 O.3     1  UNL1       -0.3924
     14 O           5.1350   -4.7038    0.0000 O.3     1  UNL1       -0.3461
     15 O           4.2690   -7.2038    0.0000 O.3     1  UNL1       -0.3841
     16 O           2.5369   -6.2038    0.0000 O.3     1  UNL1       -0.3864
     17 O           2.5369   -4.2038    0.0000 O.3     1  UNL1       -0.3869
     18 C          12.9585    1.9931    0.0000 C.3     1  UNL1       -0.0233
     19 C          13.8264    1.4965    0.0000 C.3     1  UNL1       -0.0298
     20 C          13.8303    0.4965    0.0000 C.3     1  UNL1       -0.0343
     21 C          13.1640    2.9657    0.0000 C.3     1  UNL1       -0.0015
     22 C          12.9662   -0.0069    0.0000 C.3     1  UNL1       -0.0323
     23 C          14.1523    3.0726    0.0000 C.3     1  UNL1        0.0660
     24 C          12.9542   -1.0484    0.0000 C.3     1  UNL1       -0.0260
     25 C          14.5609    2.1664    0.0000 C.3     1  UNL1       -0.0226
     26 C          12.0944    1.4898    0.0000 C.3     1  UNL1       -0.0467
     27 C          12.0983    0.4898    0.0000 C.3     1  UNL1       -0.0489
     28 C          12.7617    3.8683    0.0000 C.3     1  UNL1        0.0160
     29 C          13.8542   -1.5727    0.0000 C.3     1  UNL1       -0.0330
     30 C          14.7422   -0.0069    0.0000 C.3     1  UNL1       -0.0494
     31 C          13.4946    4.5311    0.0000 C.3     1  UNL1        0.1732
     32 C          14.7543   -1.0484    0.0000 C.3     1  UNL1       -0.0494
     33 C          12.0906    2.4898    0.0000 C.3     1  UNL1       -0.0590
     34 C          12.0043   -1.5727    0.0000 C.3     1  UNL1       -0.0448
     35 C          13.8668   -2.6576    0.0000 C.3     1  UNL1       -0.0232
     36 C          12.0901   -0.5451    0.0000 C.3     1  UNL1       -0.0590
     37 C          11.9917   -2.6576    0.0000 C.3     1  UNL1       -0.0260
     38 C          11.7833    4.0750    0.0000 C.3     1  UNL1       -0.0572
     39 C          12.9292   -3.2038    0.0000 C.3     1  UNL1        0.0621
     40 C          14.3019    5.1213    0.0000 C.3     1  UNL1        0.0020
     41 C          14.1944    6.1155    0.0000 C.3     1  UNL1       -0.0435
     42 C          12.4724    5.9293    0.0000 C.3     1  UNL1        0.0535
     43 C          13.2796    6.5195    0.0000 C.3     1  UNL1       -0.0201
     44 C          13.1721    7.5138    0.0000 C.3     1  UNL1       -0.0603
     45 C          12.0632   -4.7038    0.0000 C.3     1  UNL1        0.1882
     46 C          12.0632   -5.7038    0.0000 C.3     1  UNL1        0.1341
     47 C          11.1972   -6.2038    0.0000 C.3     1  UNL1        0.1144
     48 C          10.3312   -4.7038    0.0000 C.3     1  UNL1        0.1134
     49 C          10.3312   -5.7038    0.0000 C.3     1  UNL1        0.1184
     50 C           9.4651   -4.2038    0.0000 C.3     1  UNL1        0.0730
     51 C           8.5991   -5.7038    0.0000 C.3     1  UNL1        0.1884
     52 C           7.7331   -6.2038    0.0000 C.3     1  UNL1        0.1345
     53 C           6.8671   -5.7038    0.0000 C.3     1  UNL1        0.1206
     54 C           7.7331   -4.2038    0.0000 C.3     1  UNL1        0.1130
     55 C           6.8671   -4.7038    0.0000 C.3     1  UNL1        0.1123
     56 C           7.7331   -3.2038    0.0000 C.3     1  UNL1        0.0730
     57 C           5.1350   -5.7038    0.0000 C.3     1  UNL1        0.1880
     58 C           4.2690   -6.2038    0.0000 C.3     1  UNL1        0.1341
     59 C           3.4030   -5.7038    0.0000 C.3     1  UNL1        0.1137
     60 C           3.4030   -4.7038    0.0000 C.3     1  UNL1        0.1069
     61 C           4.2690   -4.2038    0.0000 C.3     1  UNL1        0.0792
     62 H          14.3941    1.2472    0.0000 H       1  UNL1        0.0310
     63 H          14.3636    0.8127    0.0000 H       1  UNL1        0.0306
     64 H          12.5474    2.9004    0.0000 H       1  UNL1        0.0335
     65 H          13.5019   -0.3189    0.0000 H       1  UNL1        0.0309
     66 H          14.7685    3.1406    0.0000 H       1  UNL1        0.0600
     67 H          14.9283    1.6670    0.0000 H       1  UNL1        0.0293
     68 H          15.0962    2.4792    0.0000 H       1  UNL1        0.0293
     69 H          11.8801    2.0716    0.0000 H       1  UNL1        0.0271
     70 H          11.4842    1.3798    0.0000 H       1  UNL1        0.0271
     71 H          11.4873    0.5951    0.0000 H       1  UNL1        0.0268
     72 H          11.8885   -0.0936    0.0000 H       1  UNL1        0.0268
     73 H          12.3719    3.3862    0.0000 H       1  UNL1        0.0354
     74 H          14.3935   -1.8786    0.0000 H       1  UNL1        0.0307
     75 H          15.3543   -0.1059    0.0000 H       1  UNL1        0.0268
     76 H          14.9445    0.5792    0.0000 H       1  UNL1        0.0268
     77 H          14.9701   -1.6297    0.0000 H       1  UNL1        0.0268
     78 H          15.3639   -0.9353    0.0000 H       1  UNL1        0.0268
     79 H          12.3985    3.0279    0.0000 H       1  UNL1        0.0235
     80 H          11.5524    2.7977    0.0000 H       1  UNL1        0.0235
     81 H          11.7826    1.9517    0.0000 H       1  UNL1        0.0235
     82 H          11.8020   -0.9866    0.0000 H       1  UNL1        0.0271
     83 H          11.3922   -1.6717    0.0000 H       1  UNL1        0.0271
     84 H          14.0826   -3.2389    0.0000 H       1  UNL1        0.0293
     85 H          14.4764   -2.5445    0.0000 H       1  UNL1        0.0293
     86 H          12.4021   -0.0093    0.0000 H       1  UNL1        0.0235
     87 H          11.5543   -0.2330    0.0000 H       1  UNL1        0.0235
     88 H          11.7780   -1.0808    0.0000 H       1  UNL1        0.0235
     89 H          11.3821   -2.5445    0.0000 H       1  UNL1        0.0290
     90 H          11.7759   -3.2389    0.0000 H       1  UNL1        0.0290
     91 H          11.9114    4.6816    0.0000 H       1  UNL1        0.0234
     92 H          11.1766    4.2032    0.0000 H       1  UNL1        0.0234
     93 H          11.6551    3.4684    0.0000 H       1  UNL1        0.0234
     94 H          12.3917   -3.5127    0.0000 H       1  UNL1        0.0597
     95 H          14.5753    4.5649    0.0000 H       1  UNL1        0.0317
     96 H          14.8974    5.2940    0.0000 H       1  UNL1        0.0317
     97 H          14.8130    6.0741    0.0000 H       1  UNL1        0.0270
     98 H          14.3426    6.7176    0.0000 H       1  UNL1        0.0270
     99 H          12.1989    6.4858    0.0000 H       1  UNL1        0.0563
    100 H          11.8769    5.7567    0.0000 H       1  UNL1        0.0563
    101 H          13.7801    6.8855    0.0000 H       1  UNL1        0.0320
    102 H          13.7885    7.5804    0.0000 H       1  UNL1        0.0233
    103 H          13.1055    8.1302    0.0000 H       1  UNL1        0.0233
    104 H          12.5557    7.4471    0.0000 H       1  UNL1        0.0233
    105 H          12.6002   -5.0138    0.0000 H       1  UNL1        0.0937
    106 H          12.0632   -6.3238    0.0000 H       1  UNL1        0.0671
    107 H          10.6603   -6.5138    0.0000 H       1  UNL1        0.0648
    108 H          10.3312   -4.0838    0.0000 H       1  UNL1        0.0647
    109 H           9.7942   -5.3938    0.0000 H       1  UNL1        0.0651
    110 H          13.4662   -5.8938    0.0000 H       1  UNL1        0.2101
    111 H           8.8546   -4.0961    0.0000 H       1  UNL1        0.0584
    112 H           9.2531   -4.7864    0.0000 H       1  UNL1        0.0584
    113 H          11.7341   -7.5138    0.0000 H       1  UNL1        0.2100
    114 H           8.5991   -6.3238    0.0000 H       1  UNL1        0.0938
    115 H           8.9282   -2.8938    0.0000 H       1  UNL1        0.2095
    116 H           7.1962   -6.5138    0.0000 H       1  UNL1        0.0671
    117 H           6.3301   -5.3938    0.0000 H       1  UNL1        0.0651
    118 H           8.2700   -3.8938    0.0000 H       1  UNL1        0.0647
    119 H           6.8671   -4.0838    0.0000 H       1  UNL1        0.0647
    120 H           7.1962   -7.5138    0.0000 H       1  UNL1        0.2101
    121 H           8.3437   -3.3114    0.0000 H       1  UNL1        0.0584
    122 H           7.9451   -2.6211    0.0000 H       1  UNL1        0.0584
    123 H           6.0010   -3.5838    0.0000 H       1  UNL1        0.2100
    124 H           5.1350   -6.3238    0.0000 H       1  UNL1        0.0937
    125 H           3.7320   -6.5138    0.0000 H       1  UNL1        0.0671
    126 H           6.8671   -2.0838    0.0000 H       1  UNL1        0.2095
    127 H           2.8660   -5.3938    0.0000 H       1  UNL1        0.0647
    128 H           3.4030   -4.0838    0.0000 H       1  UNL1        0.0643
    129 H           4.6675   -3.7288    0.0000 H       1  UNL1        0.0587
    130 H           3.8705   -3.7288    0.0000 H       1  UNL1        0.0587
    131 H           3.7320   -7.5138    0.0000 H       1  UNL1        0.2101
    132 H           2.0000   -5.8938    0.0000 H       1  UNL1        0.2100
    133 H           2.5369   -3.5838    0.0000 H       1  UNL1        0.2100
@<TRIPOS>BOND
     1     1    23    1
     2     1    31    1
     3     2    31    1
     4     2    42    1
     5     3    39    1
     6     3    45    1
     7     4    45    1
     8     4    48    1
     9     5    46    1
    10     5   110    1
    11     6    47    1
    12     6   113    1
    13     7    49    1
    14     7    51    1
    15     8    50    1
    16     8   115    1
    17     9    51    1
    18     9    54    1
    19    10    52    1
    20    10   120    1
    21    11    53    1
    22    11    57    1
    23    12    55    1
    24    12   123    1
    25    13    56    1
    26    13   126    1
    27    14    57    1
    28    14    61    1
    29    15    58    1
    30    15   131    1
    31    16    59    1
    32    16   132    1
    33    17    60    1
    34    17   133    1
    35    18    19    1
    36    18    21    1
    37    18    26    1
    38    18    33    1
    39    19    20    1
    40    19    25    1
    41    19    62    1
    42    20    22    1
    43    20    30    1
    44    20    63    1
    45    21    23    1
    46    21    28    1
    47    21    64    1
    48    22    24    1
    49    22    27    1
    50    22    65    1
    51    23    25    1
    52    23    66    1
    53    24    29    1
    54    24    34    1
    55    24    36    1
    56    25    67    1
    57    25    68    1
    58    26    27    1
    59    26    69    1
    60    26    70    1
    61    27    71    1
    62    27    72    1
    63    28    31    1
    64    28    38    1
    65    28    73    1
    66    29    32    1
    67    29    35    1
    68    29    74    1
    69    30    32    1
    70    30    75    1
    71    30    76    1
    72    31    40    1
    73    32    77    1
    74    32    78    1
    75    33    79    1
    76    33    80    1
    77    33    81    1
    78    34    37    1
    79    34    82    1
    80    34    83    1
    81    35    39    1
    82    35    84    1
    83    35    85    1
    84    36    86    1
    85    36    87    1
    86    36    88    1
    87    37    39    1
    88    37    89    1
    89    37    90    1
    90    38    91    1
    91    38    92    1
    92    38    93    1
    93    39    94    1
    94    40    41    1
    95    40    95    1
    96    40    96    1
    97    41    43    1
    98    41    97    1
    99    41    98    1
   100    42    43    1
   101    42    99    1
   102    42   100    1
   103    43    44    1
   104    43   101    1
   105    44   102    1
   106    44   103    1
   107    44   104    1
   108    45    46    1
   109    45   105    1
   110    46    47    1
   111    46   106    1
   112    47    49    1
   113    47   107    1
   114    48    49    1
   115    48    50    1
   116    48   108    1
   117    49   109    1
   118    50   111    1
   119    50   112    1
   120    51    52    1
   121    51   114    1
   122    52    53    1
   123    52   116    1
   124    53    55    1
   125    53   117    1
   126    54    55    1
   127    54    56    1
   128    54   118    1
   129    55   119    1
   130    56   121    1
   131    56   122    1
   132    57    58    1
   133    57   124    1
   134    58    59    1
   135    58   125    1
   136    59    60    1
   137    59   127    1
   138    60    61    1
   139    60   128    1
   140    61   129    1
   141    61   130    1
