@<TRIPOS>MOLECULE
IMPHY003670
 49 51 0 0 0
SMALL
GASTEIGER

@<TRIPOS>ATOM
      1 O           6.8671   -0.5950    0.0000 O.3     1  UNL1       -0.3095
      2 O           7.7331    2.9050    0.0000 O.3     1  UNL1       -0.3833
      3 O           6.0010    0.9050    0.0000 O.2     1  UNL1       -0.4701
      4 O           5.1350   -0.5950    0.0000 O.3     1  UNL1       -0.3404
      5 O           6.8671   -2.5950    0.0000 O.3     1  UNL1       -0.3841
      6 O           5.1350   -3.5950    0.0000 O.3     1  UNL1       -0.3864
      7 O           3.4030   -2.5950    0.0000 O.3     1  UNL1       -0.3865
      8 O           6.0010    3.9050    0.0000 O.2     1  UNL1       -0.2958
      9 O           2.5369   -1.0950    0.0000 O.3     1  UNL1       -0.3924
     10 C           7.7331    0.9050    0.0000 C.3     1  UNL1        0.0573
     11 C           7.7331    1.9050    0.0000 C.3     1  UNL1        0.1055
     12 C           8.6793    0.6003    0.0000 C.3     1  UNL1       -0.0323
     13 C           8.6793    2.2097    0.0000 C.3     1  UNL1       -0.0189
     14 C           9.2629    1.4050    0.0000 C.3     1  UNL1       -0.0470
     15 C           6.8671    0.4050    0.0000 C.3     1  UNL1        0.2094
     16 C           6.8671    2.4050    0.0000 C.2     1  UNL1        0.0578
     17 C           8.9900   -0.3503    0.0000 C.3     1  UNL1       -0.0619
     18 C           6.0010   -1.0950    0.0000 C.3     1  UNL1        0.1918
     19 C           6.0010    1.9050    0.0000 C.2     1  UNL1        0.0968
     20 C           6.0010   -2.0950    0.0000 C.3     1  UNL1        0.1342
     21 C           5.1350   -2.5950    0.0000 C.3     1  UNL1        0.1141
     22 C           4.2690   -2.0950    0.0000 C.3     1  UNL1        0.1119
     23 C           4.2690   -1.0950    0.0000 C.3     1  UNL1        0.1130
     24 C           6.8671    3.4050    0.0000 C.2     1  UNL1        0.1519
     25 C           3.4030   -0.5950    0.0000 C.3     1  UNL1        0.0730
     26 H           7.8230    0.0598    0.0000 H       1  UNL1        0.0395
     27 H           8.2418    0.1609    0.0000 H       1  UNL1        0.0304
     28 H           9.2167    2.5190    0.0000 H       1  UNL1        0.0296
     29 H           8.4283    2.7766    0.0000 H       1  UNL1        0.0296
     30 H           9.7238    0.9903    0.0000 H       1  UNL1        0.0269
     31 H           9.7238    1.8197    0.0000 H       1  UNL1        0.0269
     32 H           7.4040    0.0950    0.0000 H       1  UNL1        0.1060
     33 H           8.4006   -0.5429    0.0000 H       1  UNL1        0.0233
     34 H           9.1826   -0.9396    0.0000 H       1  UNL1        0.0233
     35 H           9.5793   -0.1576    0.0000 H       1  UNL1        0.0233
     36 H           6.5380   -1.4050    0.0000 H       1  UNL1        0.0939
     37 H           8.2700    3.2150    0.0000 H       1  UNL1        0.2106
     38 H           5.4641    2.2150    0.0000 H       1  UNL1        0.1029
     39 H           6.0010   -2.7150    0.0000 H       1  UNL1        0.0671
     40 H           4.5981   -2.9050    0.0000 H       1  UNL1        0.0648
     41 H           3.7320   -1.7850    0.0000 H       1  UNL1        0.0647
     42 H           4.2690   -0.4750    0.0000 H       1  UNL1        0.0647
     43 H           7.4040    3.7150    0.0000 H       1  UNL1        0.1080
     44 H           3.8015   -0.1201    0.0000 H       1  UNL1        0.0584
     45 H           3.0044   -0.1201    0.0000 H       1  UNL1        0.0584
     46 H           6.8671   -3.2150    0.0000 H       1  UNL1        0.2101
     47 H           4.5981   -3.9050    0.0000 H       1  UNL1        0.2100
     48 H           3.4030   -3.2150    0.0000 H       1  UNL1        0.2100
     49 H           2.0000   -0.7850    0.0000 H       1  UNL1        0.2095
@<TRIPOS>BOND
     1    15     1    1
     2    18     1    1
     3    11     2    1
     4     2    37    1
     5     3    15    1
     6     3    19    1
     7     4    18    1
     8     4    23    1
     9    20     5    1
    10     5    46    1
    11    21     6    1
    12     6    47    1
    13    22     7    1
    14     7    48    1
    15     8    24    2
    16     9    25    1
    17     9    49    1
    18    10    11    1
    19    10    12    1
    20    10    15    1
    21    10    26    1
    22    11    13    1
    23    11    16    1
    24    12    14    1
    25    12    17    1
    26    12    27    1
    27    13    14    1
    28    13    28    1
    29    13    29    1
    30    14    30    1
    31    14    31    1
    32    15    32    1
    33    16    19    2
    34    16    24    1
    35    17    33    1
    36    17    34    1
    37    17    35    1
    38    18    20    1
    39    18    36    1
    40    19    38    1
    41    20    21    1
    42    20    39    1
    43    21    22    1
    44    21    40    1
    45    22    23    1
    46    22    41    1
    47    23    25    1
    48    23    42    1
    49    24    43    1
    50    25    44    1
    51    25    45    1
