@<TRIPOS>MOLECULE
IMPHY000122
 37 39 0 0 0
SMALL
GASTEIGER

@<TRIPOS>ATOM
      1 O           2.3121   -1.0057    0.0000 O.3     1  UNL1       -0.3881
      2 O           4.2297    1.5536    0.0000 O.2     1  UNL1       -0.2918
      3 O           5.9781    1.5190    0.0000 O.3     1  UNL1       -0.5053
      4 O           7.7265    1.5536    0.0000 O.3     1  UNL1       -0.5059
      5 O           9.5082   -1.5052    0.0000 O.3     1  UNL1       -0.4950
      6 C           3.3121   -1.0018    0.0000 C.3     1  UNL1        0.0743
      7 C           4.2181   -1.5157    0.0000 C.3     1  UNL1        0.0022
      8 C           3.3121    0.0398    0.0000 C.3     1  UNL1        0.0395
      9 C           5.1121   -0.9810    0.0000 C.ar    1  UNL1       -0.0301
     10 C           5.1121    0.0190    0.0000 C.ar    1  UNL1        0.0628
     11 C           4.2181    0.5537    0.0000 C.2     1  UNL1        0.1697
     12 C           2.8154   -1.8698    0.0000 C.3     1  UNL1       -0.0354
     13 C           5.9781   -1.4810    0.0000 C.ar    1  UNL1       -0.0496
     14 C           5.9781    0.5190    0.0000 C.ar    1  UNL1        0.1387
     15 C           6.8441   -0.9810    0.0000 C.ar    1  UNL1       -0.0071
     16 C           6.8441    0.0190    0.0000 C.ar    1  UNL1        0.0658
     17 C           7.7381    0.5537    0.0000 C.ar    1  UNL1        0.1315
     18 C           7.7381   -1.5157    0.0000 C.ar    1  UNL1       -0.0119
     19 C           8.6441   -1.0018    0.0000 C.ar    1  UNL1        0.1242
     20 C           8.6441    0.0398    0.0000 C.ar    1  UNL1        0.0223
     21 C          10.3762   -1.0085    0.0000 C.3     1  UNL1        0.0788
     22 H           3.8245   -1.9947    0.0000 H       1  UNL1        0.0341
     23 H           4.6227   -1.9855    0.0000 H       1  UNL1        0.0341
     24 H           3.1030    0.6235    0.0000 H       1  UNL1        0.0373
     25 H           2.7012   -0.0663    0.0000 H       1  UNL1        0.0373
     26 H           2.2773   -1.5618    0.0000 H       1  UNL1        0.0257
     27 H           2.5075   -2.4079    0.0000 H       1  UNL1        0.0257
     28 H           3.3535   -2.1777    0.0000 H       1  UNL1        0.0257
     29 H           5.9781   -2.1010    0.0000 H       1  UNL1        0.0627
     30 H           2.0000   -0.4699    0.0000 H       1  UNL1        0.2102
     31 H           7.7309   -2.1356    0.0000 H       1  UNL1        0.0660
     32 H           9.1799    0.3519    0.0000 H       1  UNL1        0.0691
     33 H           5.4412    1.8290    0.0000 H       1  UNL1        0.2922
     34 H           8.2598    1.8698    0.0000 H       1  UNL1        0.2922
     35 H          10.6841   -1.5466    0.0000 H       1  UNL1        0.0660
     36 H          10.9143   -0.7006    0.0000 H       1  UNL1        0.0660
     37 H          10.0682   -0.4704    0.0000 H       1  UNL1        0.0660
@<TRIPOS>BOND
     1     1     6    1
     2     1    30    1
     3     2    11    2
     4     3    14    1
     5     3    33    1
     6     4    17    1
     7     4    34    1
     8     5    19    1
     9     5    21    1
    10     6     7    1
    11     6     8    1
    12     6    12    1
    13     7     9    1
    14     7    22    1
    15     7    23    1
    16     8    11    1
    17     8    24    1
    18     8    25    1
    19     9    10   ar
    20     9    13   ar
    21    10    11    1
    22    10    14   ar
    23    12    26    1
    24    12    27    1
    25    12    28    1
    26    13    15   ar
    27    13    29    1
    28    14    16   ar
    29    15    16   ar
    30    15    18   ar
    31    16    17   ar
    32    17    20   ar
    33    18    19   ar
    34    18    31    1
    35    19    20   ar
    36    20    32    1
    37    21    35    1
    38    21    36    1
    39    21    37    1
