@<TRIPOS>MOLECULE
IMPHY005346
 50 52 0 0 0
SMALL
GASTEIGER

@<TRIPOS>ATOM
      1 CL          4.2463   -3.7796    0.0000 Cl      1  UNL1       -0.1224
      2 O           3.7230   -1.8067    0.0000 O.3     1  UNL1       -0.4569
      3 O           5.4378   -3.7019    0.0000 O.3     1  UNL1       -0.3843
      4 O           8.0559   -1.8869    0.0000 O.3     1  UNL1       -0.3885
      5 O           7.0268   -3.7953    0.0000 O.3     1  UNL1       -0.3863
      6 O           4.5447    1.3586    0.0000 O.3     1  UNL1       -0.4570
      7 O           2.0000   -1.3746    0.0000 O.2     1  UNL1       -0.2453
      8 O           6.1053    2.1102    0.0000 O.2     1  UNL1       -0.2453
      9 C           5.4786   -1.7330    0.0000 C.3     1  UNL1        0.0382
     10 C           6.3796   -1.2991    0.0000 C.3     1  UNL1        0.0175
     11 C           5.6146   -2.7177    0.0000 C.3     1  UNL1        0.1143
     12 C           4.5777   -1.2991    0.0000 C.3     1  UNL1        0.1199
     13 C           7.0647   -2.0194    0.0000 C.3     1  UNL1        0.0907
     14 C           6.5929   -2.8944    0.0000 C.3     1  UNL1        0.1117
     15 C           4.3551   -0.3242    0.0000 C.3     1  UNL1        0.0651
     16 C           6.6021   -0.3242    0.0000 C.2     1  UNL1       -0.0670
     17 C           4.9786    0.4577    0.0000 C.3     1  UNL1        0.1174
     18 C           5.9786    0.4577    0.0000 C.3     1  UNL1        0.0064
     19 C           4.6239   -2.8536    0.0000 C.3     1  UNL1        0.0543
     20 C           3.3648   -0.2376    0.0000 C.2     1  UNL1        0.0396
     21 C           2.9749   -1.1520    0.0000 C.2     1  UNL1        0.3354
     22 C           7.5770   -0.1016    0.0000 C.2     1  UNL1       -0.0990
     23 C           2.8504    0.6199    0.0000 C.2     1  UNL1       -0.0882
     24 C           5.1081    2.1849    0.0000 C.2     1  UNL1        0.3346
     25 C           4.6742    3.0859    0.0000 C.2     1  UNL1        0.0265
     26 C           5.2375    3.9121    0.0000 C.3     1  UNL1       -0.0335
     27 C           3.6770    3.1606    0.0000 C.2     1  UNL1       -0.0890
     28 H           4.7916   -2.2335    0.0000 H       1  UNL1        0.0373
     29 H           7.1993   -1.0740    0.0000 H       1  UNL1        0.0376
     30 H           4.6147   -2.1483    0.0000 H       1  UNL1        0.0745
     31 H           7.2707   -1.4346    0.0000 H       1  UNL1        0.0626
     32 H           7.2127   -2.9085    0.0000 H       1  UNL1        0.0649
     33 H           4.0200    0.4570    0.0000 H       1  UNL1        0.0423
     34 H           5.3085    0.9826    0.0000 H       1  UNL1        0.0744
     35 H           6.5372    0.7267    0.0000 H       1  UNL1        0.0346
     36 H           5.8407    1.0621    0.0000 H       1  UNL1        0.0346
     37 H           4.6476   -2.2341    0.0000 H       1  UNL1        0.0459
     38 H           4.0179   -2.7228    0.0000 H       1  UNL1        0.0459
     39 H           4.8545   -3.9121    0.0000 H       1  UNL1        0.2103
     40 H           8.4343   -2.3780    0.0000 H       1  UNL1        0.2099
     41 H           7.6450   -3.8416    0.0000 H       1  UNL1        0.2100
     42 H           7.9988   -0.5561    0.0000 H       1  UNL1        0.0535
     43 H           7.7598    0.4908    0.0000 H       1  UNL1        0.0535
     44 H           3.1514    1.1620    0.0000 H       1  UNL1        0.0540
     45 H           2.2305    0.6096    0.0000 H       1  UNL1        0.0540
     46 H           5.7498    3.5628    0.0000 H       1  UNL1        0.0280
     47 H           5.5868    4.4244    0.0000 H       1  UNL1        0.0280
     48 H           4.7252    4.2614    0.0000 H       1  UNL1        0.0280
     49 H           3.4080    3.7192    0.0000 H       1  UNL1        0.0540
     50 H           3.3277    2.6483    0.0000 H       1  UNL1        0.0540
@<TRIPOS>BOND
     1     1    19    1
     2     2    12    1
     3     2    21    1
     4    11     3    1
     5     3    39    1
     6    13     4    1
     7     4    40    1
     8    14     5    1
     9     5    41    1
    10    17     6    1
    11     6    24    1
    12     7    21    2
    13     8    24    2
    14     9    10    1
    15     9    11    1
    16     9    12    1
    17     9    28    1
    18    10    13    1
    19    10    16    1
    20    10    29    1
    21    11    14    1
    22    11    19    1
    23    12    15    1
    24    12    30    1
    25    13    14    1
    26    13    31    1
    27    14    32    1
    28    15    17    1
    29    15    20    1
    30    15    33    1
    31    16    18    1
    32    16    22    2
    33    17    18    1
    34    17    34    1
    35    18    35    1
    36    18    36    1
    37    19    37    1
    38    19    38    1
    39    20    21    1
    40    20    23    2
    41    22    42    1
    42    22    43    1
    43    23    44    1
    44    23    45    1
    45    24    25    1
    46    25    26    1
    47    25    27    2
    48    26    46    1
    49    26    47    1
    50    26    48    1
    51    27    49    1
    52    27    50    1
