@<TRIPOS>MOLECULE
IMPHY003598
 45 50 0 0 0
SMALL
GASTEIGER

@<TRIPOS>ATOM
      1 O           8.5149    0.6857    0.0000 O.3     1  UNL1       -0.3430
      2 O           6.2344   -1.3676    0.0000 O.3     1  UNL1       -0.3711
      3 O           7.1300    1.8072    0.0000 O.3     1  UNL1       -0.3666
      4 O          12.1637   -0.5041    0.0000 O.3     1  UNL1       -0.4526
      5 O           2.5850   -0.1899    0.0000 O.3     1  UNL1       -0.4526
      6 O          12.1637   -2.1135    0.0000 O.3     1  UNL1       -0.4526
      7 O           2.5822    1.4195    0.0000 O.3     1  UNL1       -0.4526
      8 C           7.0367    0.0276    0.0000 C.3     1  UNL1        0.0479
      9 C           7.7058   -0.7155    0.0000 C.3     1  UNL1        0.0231
     10 C           8.6194   -0.3088    0.0000 C.3     1  UNL1        0.0921
     11 C           6.1296   -0.3791    0.0000 C.3     1  UNL1        0.0916
     12 C           7.5367    0.8936    0.0000 C.3     1  UNL1        0.1628
     13 C           7.2066   -1.5751    0.0000 C.3     1  UNL1        0.0545
     14 C           9.4854   -0.8088    0.0000 C.ar    1  UNL1       -0.0148
     15 C           5.2627    0.1194    0.0000 C.ar    1  UNL1       -0.0148
     16 C          10.3514   -0.3088    0.0000 C.ar    1  UNL1       -0.0105
     17 C           4.3976   -0.3821    0.0000 C.ar    1  UNL1       -0.0105
     18 C           9.4854   -1.8088    0.0000 C.ar    1  UNL1       -0.0524
     19 C           5.2610    1.1194    0.0000 C.ar    1  UNL1       -0.0524
     20 C          11.2175   -0.8088    0.0000 C.ar    1  UNL1        0.1666
     21 C           3.5307    0.1164    0.0000 C.ar    1  UNL1        0.1666
     22 C          10.3514   -2.3088    0.0000 C.ar    1  UNL1       -0.0158
     23 C           4.3941    1.6179    0.0000 C.ar    1  UNL1       -0.0158
     24 C          11.2175   -1.8088    0.0000 C.ar    1  UNL1        0.1662
     25 C           3.5290    1.1164    0.0000 C.ar    1  UNL1        0.1662
     26 C          12.7473   -1.3088    0.0000 C.3     1  UNL1        0.2332
     27 C           2.0000    0.6138    0.0000 C.3     1  UNL1        0.2332
     28 H           6.4671    0.6586    0.0000 H       1  UNL1        0.0383
     29 H           8.2738   -1.3479    0.0000 H       1  UNL1        0.0357
     30 H           9.1394    0.0289    0.0000 H       1  UNL1        0.0651
     31 H           5.6101   -0.7174    0.0000 H       1  UNL1        0.0651
     32 H           6.6879    0.9381    0.0000 H       1  UNL1        0.0911
     33 H           7.0141   -2.1645    0.0000 H       1  UNL1        0.0564
     34 H           7.7725   -1.8284    0.0000 H       1  UNL1        0.0564
     35 H           7.4944    2.3088    0.0000 H       1  UNL1        0.2125
     36 H          10.3514    0.3112    0.0000 H       1  UNL1        0.0659
     37 H           4.3986   -1.0021    0.0000 H       1  UNL1        0.0659
     38 H           8.9485   -2.1188    0.0000 H       1  UNL1        0.0622
     39 H           5.7974    1.4304    0.0000 H       1  UNL1        0.0622
     40 H          10.3514   -2.9288    0.0000 H       1  UNL1        0.0655
     41 H           4.3930    2.2379    0.0000 H       1  UNL1        0.0655
     42 H          13.2082   -1.7235    0.0000 H       1  UNL1        0.1166
     43 H          13.2082   -0.8941    0.0000 H       1  UNL1        0.1166
     44 H           1.5384    1.0277    0.0000 H       1  UNL1        0.1166
     45 H           1.5398    0.1983    0.0000 H       1  UNL1        0.1166
@<TRIPOS>BOND
     1     1    10    1
     2     1    12    1
     3     2    11    1
     4     2    13    1
     5     3    12    1
     6     3    35    1
     7     4    20    1
     8     4    26    1
     9     5    21    1
    10     5    27    1
    11     6    24    1
    12     6    26    1
    13     7    25    1
    14     7    27    1
    15     8     9    1
    16     8    11    1
    17     8    12    1
    18     8    28    1
    19     9    10    1
    20     9    13    1
    21     9    29    1
    22    10    14    1
    23    10    30    1
    24    11    15    1
    25    11    31    1
    26    12    32    1
    27    13    33    1
    28    13    34    1
    29    14    16   ar
    30    14    18   ar
    31    15    17   ar
    32    15    19   ar
    33    16    20   ar
    34    16    36    1
    35    17    21   ar
    36    17    37    1
    37    18    22   ar
    38    18    38    1
    39    19    23   ar
    40    19    39    1
    41    20    24   ar
    42    21    25   ar
    43    22    24   ar
    44    22    40    1
    45    23    25   ar
    46    23    41    1
    47    26    42    1
    48    26    43    1
    49    27    44    1
    50    27    45    1
