@<TRIPOS>MOLECULE
IMPHY001127
 72 76 0 0 0
SMALL
GASTEIGER

@<TRIPOS>ATOM
      1 O           2.6660    0.1873    0.0000 O.3     1  UNL1       -0.3656
      2 O           2.5369    2.3544    0.0000 O.3     1  UNL1       -0.3889
      3 O           6.9052    1.8513    0.0000 O.2     1  UNL1       -0.2921
      4 O           4.2329    5.1279    0.0000 O.3     1  UNL1       -0.4673
      5 O           6.8671   -1.1456    0.0000 O.3     1  UNL1       -0.4679
      6 O           2.7430    4.2446    0.0000 O.2     1  UNL1       -0.2499
      7 O           5.1350   -1.1456    0.0000 O.2     1  UNL1       -0.2509
      8 O           3.4890   -4.7585    0.0000 O.3     1  UNL1       -0.4282
      9 O           2.1050   -3.6358    0.0000 O.2     1  UNL1       -0.2452
     10 O           5.1521   -5.3986    0.0000 O.3     1  UNL1       -0.3545
     11 C           4.2690    0.3544    0.0000 C.3     1  UNL1        0.0244
     12 C           5.1350    0.8544    0.0000 C.3     1  UNL1       -0.0066
     13 C           5.1350    1.8544    0.0000 C.3     1  UNL1        0.0409
     14 C           3.4030    0.8544    0.0000 C.3     1  UNL1        0.0949
     15 C           4.2690    2.3544    0.0000 C.3     1  UNL1        0.0191
     16 C           3.4030    1.8544    0.0000 C.3     1  UNL1        0.0872
     17 C           4.0598   -0.6174    0.0000 C.2     1  UNL1       -0.0329
     18 C           3.0711   -0.7205    0.0000 C.3     1  UNL1        0.0819
     19 C           4.2529    3.3959    0.0000 C.3     1  UNL1        0.0894
     20 C           5.1350   -0.1456    0.0000 C.3     1  UNL1       -0.0530
     21 C           6.0010    0.3544    0.0000 C.3     1  UNL1        0.0495
     22 C           2.8673   -1.6874    0.0000 C.3     1  UNL1       -0.0119
     23 C           4.4586   -1.5216    0.0000 C.2     1  UNL1       -0.0626
     24 C           6.0010    1.3544    0.0000 C.3     1  UNL1       -0.0518
     25 C           6.0450    2.3613    0.0000 C.2     1  UNL1        0.1623
     26 C           3.7231   -2.1815    0.0000 C.3     1  UNL1        0.0146
     27 C           5.1510    3.9237    0.0000 C.2     1  UNL1       -0.0639
     28 C           6.0530    3.4029    0.0000 C.2     1  UNL1       -0.0215
     29 C           3.2530    3.3844    0.0000 C.3     1  UNL1       -0.0455
     30 C           3.7430    4.2561    0.0000 C.2     1  UNL1        0.3170
     31 C           5.4362   -1.7320    0.0000 C.3     1  UNL1       -0.0429
     32 C           3.8267   -3.1761    0.0000 C.2     1  UNL1        0.0457
     33 C           6.0010   -0.6456    0.0000 C.2     1  UNL1        0.3071
     34 C           4.6923   -3.6769    0.0000 C.2     1  UNL1       -0.0060
     35 C           3.0830   -3.8446    0.0000 C.2     1  UNL1        0.3380
     36 C           4.4836   -4.6548    0.0000 C.3     1  UNL1        0.2232
     37 C           3.7229    5.9880    0.0000 C.3     1  UNL1        0.0817
     38 C           6.8671   -2.1456    0.0000 C.3     1  UNL1        0.0817
     39 H           5.6720    1.1644    0.0000 H       1  UNL1        0.0325
     40 H           2.6260    1.1991    0.0000 H       1  UNL1        0.0631
     41 H           3.5296    2.7737    0.0000 H       1  UNL1        0.0350
     42 H           3.4030    2.4744    0.0000 H       1  UNL1        0.0623
     43 H           2.2258   -0.8104    0.0000 H       1  UNL1        0.0644
     44 H           4.8250   -0.6825    0.0000 H       1  UNL1        0.0239
     45 H           5.6720   -0.4556    0.0000 H       1  UNL1        0.0239
     46 H           5.4450    0.3914    0.0000 H       1  UNL1        0.0239
     47 H           6.6116    0.2468    0.0000 H       1  UNL1        0.0381
     48 H           6.2131    0.9370    0.0000 H       1  UNL1        0.0381
     49 H           2.2774   -1.4965    0.0000 H       1  UNL1        0.0302
     50 H           2.6154   -2.2540    0.0000 H       1  UNL1        0.0302
     51 H           5.6910    0.8175    0.0000 H       1  UNL1        0.0239
     52 H           6.5380    1.0444    0.0000 H       1  UNL1        0.0239
     53 H           6.3110    1.8914    0.0000 H       1  UNL1        0.0239
     54 H           3.2030   -2.5189    0.0000 H       1  UNL1        0.0397
     55 H           5.1486    4.5437    0.0000 H       1  UNL1        0.0584
     56 H           6.5912    3.7108    0.0000 H       1  UNL1        0.0650
     57 H           3.2458    4.0043    0.0000 H       1  UNL1        0.0243
     58 H           2.6330    3.3772    0.0000 H       1  UNL1        0.0243
     59 H           3.2602    2.7644    0.0000 H       1  UNL1        0.0243
     60 H           2.0000    2.0444    0.0000 H       1  UNL1        0.2099
     61 H           5.3057   -2.3381    0.0000 H       1  UNL1        0.0275
     62 H           6.0423   -1.8625    0.0000 H       1  UNL1        0.0275
     63 H           5.5667   -1.1259    0.0000 H       1  UNL1        0.0275
     64 H           5.2589   -3.4252    0.0000 H       1  UNL1        0.0639
     65 H           4.2609   -5.2335    0.0000 H       1  UNL1        0.1105
     66 H           4.2562    6.3042    0.0000 H       1  UNL1        0.0661
     67 H           3.4067    6.5214    0.0000 H       1  UNL1        0.0661
     68 H           3.1896    5.6719    0.0000 H       1  UNL1        0.0661
     69 H           6.2471   -2.1456    0.0000 H       1  UNL1        0.0661
     70 H           6.8671   -2.7656    0.0000 H       1  UNL1        0.0661
     71 H           7.4871   -2.1456    0.0000 H       1  UNL1        0.0661
     72 H           4.9600   -5.9880    0.0000 H       1  UNL1        0.2139
@<TRIPOS>BOND
     1     1    14    1
     2     1    18    1
     3    16     2    1
     4     2    60    1
     5     3    25    2
     6     4    30    1
     7     4    37    1
     8     5    33    1
     9     5    38    1
    10     6    30    2
    11     7    33    2
    12     8    35    1
    13     8    36    1
    14     9    35    2
    15    10    36    1
    16    10    72    1
    17    11    12    1
    18    11    14    1
    19    11    17    1
    20    11    20    1
    21    12    13    1
    22    12    21    1
    23    12    39    1
    24    13    15    1
    25    13    24    1
    26    13    25    1
    27    14    16    1
    28    14    40    1
    29    15    16    1
    30    15    19    1
    31    15    41    1
    32    16    42    1
    33    17    18    1
    34    17    23    2
    35    18    22    1
    36    18    43    1
    37    19    27    1
    38    19    29    1
    39    19    30    1
    40    20    44    1
    41    20    45    1
    42    20    46    1
    43    21    33    1
    44    21    47    1
    45    21    48    1
    46    22    26    1
    47    22    49    1
    48    22    50    1
    49    23    26    1
    50    23    31    1
    51    24    51    1
    52    24    52    1
    53    24    53    1
    54    25    28    1
    55    26    32    1
    56    26    54    1
    57    27    28    2
    58    27    55    1
    59    28    56    1
    60    29    57    1
    61    29    58    1
    62    29    59    1
    63    31    61    1
    64    31    62    1
    65    31    63    1
    66    32    34    2
    67    32    35    1
    68    34    36    1
    69    34    64    1
    70    36    65    1
    71    37    66    1
    72    37    67    1
    73    37    68    1
    74    38    69    1
    75    38    70    1
    76    38    71    1
