@<TRIPOS>MOLECULE
IMPHY006164
 44 45 0 0 0
SMALL
GASTEIGER

@<TRIPOS>ATOM
      1 O           4.2690   -3.9050    0.0000 O.3     1  UNL1       -0.5064
      2 O           2.5369   -0.9050    0.0000 O.3     1  UNL1       -0.5059
      3 O           3.4030    0.5950    0.0000 O.2     1  UNL1       -0.2872
      4 O           8.5991    3.5950    0.0000 O.3     1  UNL1       -0.5068
      5 C           5.1350   -2.4050    0.0000 C.ar    1  UNL1       -0.0013
      6 C           6.0010   -2.9050    0.0000 C.3     1  UNL1       -0.0058
      7 C           5.1350   -1.4050    0.0000 C.ar    1  UNL1       -0.0405
      8 C           4.2690   -0.9050    0.0000 C.ar    1  UNL1        0.0635
      9 C           4.2690   -2.9050    0.0000 C.ar    1  UNL1        0.1238
     10 C           6.8671   -2.4050    0.0000 C.2     1  UNL1       -0.0809
     11 C           3.4030   -1.4050    0.0000 C.ar    1  UNL1        0.1311
     12 C           3.4030   -2.4050    0.0000 C.ar    1  UNL1        0.0223
     13 C           7.7331   -2.9050    0.0000 C.2     1  UNL1       -0.0793
     14 C           4.2690    0.0950    0.0000 C.2     1  UNL1        0.1896
     15 C           8.5991   -2.4050    0.0000 C.3     1  UNL1       -0.0440
     16 C           7.7331   -3.9050    0.0000 C.3     1  UNL1       -0.0440
     17 C           5.1350    0.5950    0.0000 C.2     1  UNL1       -0.0137
     18 C           6.0010    2.0950    0.0000 C.ar    1  UNL1       -0.0247
     19 C           5.1350    1.5950    0.0000 C.2     1  UNL1       -0.0510
     20 C           6.8671    1.5950    0.0000 C.ar    1  UNL1       -0.0511
     21 C           6.0010    3.0950    0.0000 C.ar    1  UNL1       -0.0511
     22 C           7.7331    2.0950    0.0000 C.ar    1  UNL1       -0.0196
     23 C           6.8671    3.5950    0.0000 C.ar    1  UNL1       -0.0196
     24 C           7.7331    3.0950    0.0000 C.ar    1  UNL1        0.1169
     25 H           5.6025   -3.3800    0.0000 H       1  UNL1        0.0357
     26 H           6.3996   -3.3800    0.0000 H       1  UNL1        0.0357
     27 H           5.6720   -1.0950    0.0000 H       1  UNL1        0.0630
     28 H           6.8671   -1.7850    0.0000 H       1  UNL1        0.0575
     29 H           2.8660   -2.7150    0.0000 H       1  UNL1        0.0691
     30 H           5.6720    0.2850    0.0000 H       1  UNL1        0.0656
     31 H           8.9091   -2.9419    0.0000 H       1  UNL1        0.0274
     32 H           9.1360   -2.0950    0.0000 H       1  UNL1        0.0274
     33 H           7.1131   -3.9050    0.0000 H       1  UNL1        0.0274
     34 H           7.7331   -4.5250    0.0000 H       1  UNL1        0.0274
     35 H           8.3531   -3.9050    0.0000 H       1  UNL1        0.0274
     36 H           8.2891   -1.8681    0.0000 H       1  UNL1        0.0274
     37 H           4.5981    1.9050    0.0000 H       1  UNL1        0.0625
     38 H           3.7320   -4.2150    0.0000 H       1  UNL1        0.2921
     39 H           2.0000   -1.2150    0.0000 H       1  UNL1        0.2922
     40 H           6.8671    0.9750    0.0000 H       1  UNL1        0.0625
     41 H           5.4641    3.4050    0.0000 H       1  UNL1        0.0625
     42 H           8.2700    1.7850    0.0000 H       1  UNL1        0.0654
     43 H           6.8671    4.2150    0.0000 H       1  UNL1        0.0654
     44 H           8.5991    4.2150    0.0000 H       1  UNL1        0.2921
@<TRIPOS>BOND
     1     1     9    1
     2     1    38    1
     3     2    11    1
     4     2    39    1
     5     3    14    2
     6     4    24    1
     7     4    44    1
     8     5     6    1
     9     5     7   ar
    10     5     9   ar
    11     6    10    1
    12     6    25    1
    13     6    26    1
    14     7     8   ar
    15     7    27    1
    16     8    11   ar
    17     8    14    1
    18     9    12   ar
    19    10    13    2
    20    10    28    1
    21    11    12   ar
    22    12    29    1
    23    13    15    1
    24    13    16    1
    25    14    17    1
    26    15    31    1
    27    15    32    1
    28    15    36    1
    29    16    33    1
    30    16    34    1
    31    16    35    1
    32    17    19    2
    33    17    30    1
    34    18    19    1
    35    18    20   ar
    36    18    21   ar
    37    19    37    1
    38    20    22   ar
    39    20    40    1
    40    21    23   ar
    41    21    41    1
    42    22    24   ar
    43    22    42    1
    44    23    24   ar
    45    23    43    1
