@<TRIPOS>MOLECULE
IMPHY007778
 46 46 0 0 0
SMALL
GASTEIGER

@<TRIPOS>ATOM
      1 CL          2.5369    1.4050    0.0000 Cl      1  UNL1       -0.1226
      2 O           9.9651    0.5390    0.0000 O.3     1  UNL1       -0.3673
      3 O           4.2690   -1.5950    0.0000 O.3     1  UNL1       -0.3766
      4 O           2.5369   -0.5950    0.0000 O.3     1  UNL1       -0.3871
      5 C          10.4651    1.4050    0.0000 C.3     1  UNL1        0.0862
      6 C           9.4651    1.4050    0.0000 C.3     1  UNL1        0.0960
      7 C          11.3312    1.9050    0.0000 C.3     1  UNL1       -0.0241
      8 C          12.1972    1.4050    0.0000 C.3     1  UNL1       -0.0506
      9 C           8.5991    1.9050    0.0000 C.3     1  UNL1        0.0388
     10 C          13.0632    1.9050    0.0000 C.3     1  UNL1       -0.0530
     11 C          13.9292    1.4050    0.0000 C.3     1  UNL1       -0.0531
     12 C          14.7953    1.9050    0.0000 C.3     1  UNL1       -0.0533
     13 C           7.7331    1.4050    0.0000 C.1     1  UNL1       -0.0858
     14 C          15.6613    1.4050    0.0000 C.3     1  UNL1       -0.0559
     15 C          16.5273    1.9050    0.0000 C.3     1  UNL1       -0.0653
     16 C           6.8671    0.9050    0.0000 C.1     1  UNL1       -0.0147
     17 C           6.0010    0.4050    0.0000 C.1     1  UNL1       -0.0122
     18 C           4.2690   -0.5950    0.0000 C.3     1  UNL1        0.1432
     19 C           3.4030   -0.0950    0.0000 C.3     1  UNL1        0.1055
     20 C           5.1350   -0.0950    0.0000 C.1     1  UNL1       -0.0545
     21 C           3.4030    0.9050    0.0000 C.3     1  UNL1        0.0520
     22 H          11.0662    0.8040    0.0000 H       1  UNL1        0.0622
     23 H           8.8641    0.8040    0.0000 H       1  UNL1        0.0631
     24 H          11.7297    2.3800    0.0000 H       1  UNL1        0.0291
     25 H          10.9326    2.3800    0.0000 H       1  UNL1        0.0291
     26 H          11.7987    0.9301    0.0000 H       1  UNL1        0.0266
     27 H          12.5957    0.9301    0.0000 H       1  UNL1        0.0266
     28 H           8.9976    2.3800    0.0000 H       1  UNL1        0.0424
     29 H           8.2006    2.3800    0.0000 H       1  UNL1        0.0424
     30 H          13.4617    2.3800    0.0000 H       1  UNL1        0.0265
     31 H          12.6647    2.3800    0.0000 H       1  UNL1        0.0265
     32 H          13.5307    0.9301    0.0000 H       1  UNL1        0.0265
     33 H          14.3278    0.9301    0.0000 H       1  UNL1        0.0265
     34 H          15.1938    2.3800    0.0000 H       1  UNL1        0.0265
     35 H          14.3967    2.3800    0.0000 H       1  UNL1        0.0265
     36 H          15.2628    0.9301    0.0000 H       1  UNL1        0.0263
     37 H          16.0598    0.9301    0.0000 H       1  UNL1        0.0263
     38 H          16.8373    1.3681    0.0000 H       1  UNL1        0.0230
     39 H          17.0643    2.2150    0.0000 H       1  UNL1        0.0230
     40 H          16.2173    2.4419    0.0000 H       1  UNL1        0.0230
     41 H           5.0051   -1.0200    0.0000 H       1  UNL1        0.0758
     42 H           3.4030   -0.9450    0.0000 H       1  UNL1        0.0641
     43 H           4.0135    0.7973    0.0000 H       1  UNL1        0.0456
     44 H           3.6150    1.4876    0.0000 H       1  UNL1        0.0456
     45 H           2.0000   -0.2850    0.0000 H       1  UNL1        0.2100
     46 H           4.8059   -1.9050    0.0000 H       1  UNL1        0.2112
@<TRIPOS>BOND
     1     1    21    1
     2     2     5    1
     3     2     6    1
     4     3    18    1
     5     3    46    1
     6     4    19    1
     7     4    45    1
     8     5     6    1
     9     5     7    1
    10     5    22    1
    11     6     9    1
    12     6    23    1
    13     7     8    1
    14     7    24    1
    15     7    25    1
    16     8    10    1
    17     8    26    1
    18     8    27    1
    19     9    13    1
    20     9    28    1
    21     9    29    1
    22    10    11    1
    23    10    30    1
    24    10    31    1
    25    11    12    1
    26    11    32    1
    27    11    33    1
    28    12    14    1
    29    12    34    1
    30    12    35    1
    31    13    16    3
    32    14    15    1
    33    14    36    1
    34    14    37    1
    35    15    38    1
    36    15    39    1
    37    15    40    1
    38    16    17    1
    39    17    20    3
    40    18    19    1
    41    18    20    1
    42    18    41    1
    43    19    21    1
    44    19    42    1
    45    21    43    1
    46    21    44    1
