@<TRIPOS>MOLECULE
IMPHY001465
 50 52 0 0 0
SMALL
GASTEIGER

@<TRIPOS>ATOM
      1 O           2.5369    1.0000    0.0000 O.3     1  UNL1       -0.3947
      2 O           3.4030    3.5000    0.0000 O.3     1  UNL1       -0.3947
      3 O           8.6651    2.5242    0.0000 O.3     1  UNL1       -0.4914
      4 O           8.6651    0.4758    0.0000 O.3     1  UNL1       -0.5033
      5 O           3.4030   -2.5000    0.0000 O.3     1  UNL1       -0.4914
      6 O           5.1350   -3.5000    0.0000 O.3     1  UNL1       -0.5033
      7 C           4.2690    1.0000    0.0000 C.3     1  UNL1       -0.0018
      8 C           4.2690    2.0000    0.0000 C.3     1  UNL1       -0.0081
      9 C           5.1350    0.5000    0.0000 C.3     1  UNL1        0.0149
     10 C           5.1350    2.5000    0.0000 C.3     1  UNL1       -0.0220
     11 C           6.0010    1.0000    0.0000 C.ar    1  UNL1       -0.0328
     12 C           6.0010    2.0000    0.0000 C.ar    1  UNL1       -0.0396
     13 C           3.4030    0.5000    0.0000 C.3     1  UNL1        0.0482
     14 C           3.4030    2.5000    0.0000 C.3     1  UNL1        0.0477
     15 C           5.1350   -0.5000    0.0000 C.ar    1  UNL1       -0.0359
     16 C           6.8950    0.4653    0.0000 C.ar    1  UNL1       -0.0125
     17 C           6.8950    2.5347    0.0000 C.ar    1  UNL1       -0.0128
     18 C           4.2690   -1.0000    0.0000 C.ar    1  UNL1       -0.0125
     19 C           6.0010   -1.0000    0.0000 C.ar    1  UNL1       -0.0543
     20 C           7.8010    0.9792    0.0000 C.ar    1  UNL1        0.1587
     21 C           7.8010    2.0208    0.0000 C.ar    1  UNL1        0.1615
     22 C           4.2690   -2.0000    0.0000 C.ar    1  UNL1        0.1615
     23 C           6.0010   -2.0000    0.0000 C.ar    1  UNL1       -0.0162
     24 C           5.1350   -2.5000    0.0000 C.ar    1  UNL1        0.1585
     25 C           8.6613    3.5241    0.0000 C.3     1  UNL1        0.0790
     26 C           3.4030   -3.5000    0.0000 C.3     1  UNL1        0.0790
     27 H           4.2690    0.3800    0.0000 H       1  UNL1        0.0335
     28 H           4.2690    2.6200    0.0000 H       1  UNL1        0.0330
     29 H           5.6720    0.1900    0.0000 H       1  UNL1        0.0401
     30 H           5.5335    2.9750    0.0000 H       1  UNL1        0.0317
     31 H           4.7365    2.9750    0.0000 H       1  UNL1        0.0317
     32 H           3.0044    0.0251    0.0000 H       1  UNL1        0.0560
     33 H           3.8015    0.0251    0.0000 H       1  UNL1        0.0560
     34 H           2.7924    2.6077    0.0000 H       1  UNL1        0.0560
     35 H           3.1909    1.9174    0.0000 H       1  UNL1        0.0560
     36 H           6.8878   -0.1546    0.0000 H       1  UNL1        0.0658
     37 H           6.8878    3.1546    0.0000 H       1  UNL1        0.0658
     38 H           3.7320   -0.6900    0.0000 H       1  UNL1        0.0658
     39 H           6.5380   -0.6900    0.0000 H       1  UNL1        0.0622
     40 H           2.0000    0.6900    0.0000 H       1  UNL1        0.2094
     41 H           2.8660    3.8100    0.0000 H       1  UNL1        0.2094
     42 H           6.5380   -2.3100    0.0000 H       1  UNL1        0.0655
     43 H           9.2033    0.7838    0.0000 H       1  UNL1        0.2923
     44 H           9.2813    3.5265    0.0000 H       1  UNL1        0.0660
     45 H           8.6589    4.1441    0.0000 H       1  UNL1        0.0660
     46 H           8.0413    3.5218    0.0000 H       1  UNL1        0.0660
     47 H           5.6720   -3.8100    0.0000 H       1  UNL1        0.2923
     48 H           2.7830   -3.5000    0.0000 H       1  UNL1        0.0660
     49 H           3.4030   -4.1200    0.0000 H       1  UNL1        0.0660
     50 H           4.0230   -3.5000    0.0000 H       1  UNL1        0.0660
@<TRIPOS>BOND
     1     1    13    1
     2     1    40    1
     3     2    14    1
     4     2    41    1
     5     3    21    1
     6     3    25    1
     7     4    20    1
     8     4    43    1
     9     5    22    1
    10     5    26    1
    11     6    24    1
    12     6    47    1
    13     7     8    1
    14     7     9    1
    15     7    13    1
    16     7    27    1
    17     8    10    1
    18     8    14    1
    19     8    28    1
    20     9    11    1
    21     9    15    1
    22     9    29    1
    23    10    12    1
    24    10    30    1
    25    10    31    1
    26    11    12   ar
    27    11    16   ar
    28    12    17   ar
    29    13    32    1
    30    13    33    1
    31    14    34    1
    32    14    35    1
    33    15    18   ar
    34    15    19   ar
    35    16    20   ar
    36    16    36    1
    37    17    21   ar
    38    17    37    1
    39    18    22   ar
    40    18    38    1
    41    19    23   ar
    42    19    39    1
    43    20    21   ar
    44    22    24   ar
    45    23    24   ar
    46    23    42    1
    47    25    44    1
    48    25    45    1
    49    25    46    1
    50    26    48    1
    51    26    49    1
    52    26    50    1
