@<TRIPOS>MOLECULE
IMPHY001904
 44 48 0 0 0
SMALL
GASTEIGER

@<TRIPOS>ATOM
      1 O           6.0320    0.4203    0.0000 O.3     1  UNL1       -0.4828
      2 O           3.2615    0.1812    0.0000 O.2     1  UNL1       -0.2750
      3 O           4.5988    3.8328    0.0000 O.3     1  UNL1       -0.4914
      4 O           2.6150    3.5786    0.0000 O.3     1  UNL1       -0.5033
      5 N           3.1527   -1.4781    0.0000 N.am    1  UNL1       -0.3144
      6 N           6.5558   -3.5581    0.0000 N.ar    1  UNL1       -0.3604
      7 C           4.7529   -0.5543    0.0000 C.3     1  UNL1        0.1055
      8 C           5.5463   -1.1630    0.0000 C.ar    1  UNL1        0.0194
      9 C           5.0391    0.3968    0.0000 C.3     1  UNL1        0.1405
     10 C           5.6768   -2.1545    0.0000 C.ar    1  UNL1        0.0104
     11 C           6.3628   -0.5163    0.0000 C.ar    1  UNL1        0.1262
     12 C           5.0680   -2.9478    0.0000 C.ar    1  UNL1       -0.0205
     13 C           3.7615   -0.6848    0.0000 C.2     1  UNL1        0.2245
     14 C           6.6329   -2.5679    0.0000 C.ar    1  UNL1        0.0472
     15 C           4.0766   -3.0784    0.0000 C.3     1  UNL1       -0.0101
     16 C           4.4331    1.1923    0.0000 C.ar    1  UNL1       -0.0026
     17 C           3.2832   -2.4696    0.0000 C.3     1  UNL1        0.0156
     18 C           7.3282   -0.9074    0.0000 C.ar    1  UNL1       -0.0176
     19 C           5.5906   -3.7924    0.0000 C.ar    1  UNL1        0.0060
     20 C           7.4641   -1.9402    0.0000 C.ar    1  UNL1       -0.0343
     21 C           4.8189    2.1148    0.0000 C.ar    1  UNL1       -0.0096
     22 C           3.4412    1.0652    0.0000 C.ar    1  UNL1       -0.0514
     23 C           4.2129    2.9103    0.0000 C.ar    1  UNL1        0.1616
     24 C           2.8351    1.8606    0.0000 C.ar    1  UNL1       -0.0161
     25 C           3.2210    2.7832    0.0000 C.ar    1  UNL1        0.1585
     26 C           5.5906    3.9599    0.0000 C.3     1  UNL1        0.0790
     27 H           4.2023    0.0933    0.0000 H       1  UNL1        0.0485
     28 H           5.3077    0.9556    0.0000 H       1  UNL1        0.0795
     29 H           3.5847   -3.4558    0.0000 H       1  UNL1        0.0329
     30 H           4.3138   -3.6512    0.0000 H       1  UNL1        0.0329
     31 H           2.6685   -2.3887    0.0000 H       1  UNL1        0.0465
     32 H           3.0460   -3.0424    0.0000 H       1  UNL1        0.0465
     33 H           7.8186   -0.5281    0.0000 H       1  UNL1        0.0655
     34 H           2.5538   -1.3177    0.0000 H       1  UNL1        0.1487
     35 H           5.3553   -4.3661    0.0000 H       1  UNL1        0.0810
     36 H           8.0360   -2.1796    0.0000 H       1  UNL1        0.0639
     37 H           7.0279   -3.9599    0.0000 H       1  UNL1        0.1653
     38 H           5.4339    2.1936    0.0000 H       1  UNL1        0.0659
     39 H           3.2019    0.4932    0.0000 H       1  UNL1        0.0623
     40 H           2.2202    1.7818    0.0000 H       1  UNL1        0.0655
     41 H           2.0000    3.4998    0.0000 H       1  UNL1        0.2923
     42 H           5.6694    3.3450    0.0000 H       1  UNL1        0.0660
     43 H           6.2056    4.0388    0.0000 H       1  UNL1        0.0660
     44 H           5.5118    4.5749    0.0000 H       1  UNL1        0.0660
@<TRIPOS>BOND
     1     1     9    1
     2     1    11    1
     3     2    13    2
     4     3    23    1
     5     3    26    1
     6     4    25    1
     7     4    41    1
     8     5    13   am
     9     5    17    1
    10     5    34    1
    11     6    14   ar
    12     6    19   ar
    13     6    37    1
    14     7     8    1
    15     7     9    1
    16     7    13    1
    17     7    27    1
    18     8    10   ar
    19     8    11   ar
    20     9    16    1
    21     9    28    1
    22    10    12   ar
    23    10    14   ar
    24    11    18   ar
    25    12    15    1
    26    12    19   ar
    27    14    20   ar
    28    15    17    1
    29    15    29    1
    30    15    30    1
    31    16    21   ar
    32    16    22   ar
    33    17    31    1
    34    17    32    1
    35    18    20   ar
    36    18    33    1
    37    19    35    1
    38    20    36    1
    39    21    23   ar
    40    21    38    1
    41    22    24   ar
    42    22    39    1
    43    23    25   ar
    44    24    25   ar
    45    24    40    1
    46    26    42    1
    47    26    43    1
    48    26    44    1
