@<TRIPOS>MOLECULE
IMPHY016951
 11 11 0 0 0
SMALL
GASTEIGER

@<TRIPOS>ATOM
      1 O           2.8090   -1.4571    0.0000 O.2     1  UNL1       -0.4703
      2 O           4.8913    0.7862    0.0000 O.2     1  UNL1       -0.2956
      3 C           3.3090    0.0817    0.0000 C.ar    1  UNL1        0.0518
      4 C           2.3090    0.0817    0.0000 C.ar    1  UNL1       -0.0137
      5 C           3.6180   -0.8693    0.0000 C.ar    1  UNL1        0.1019
      6 C           2.0000   -0.8693    0.0000 C.ar    1  UNL1        0.0924
      7 C           3.8968    0.8907    0.0000 C.2     1  UNL1        0.1532
      8 H           1.9446    0.5833    0.0000 H       1  UNL1        0.0656
      9 H           4.2077   -1.0609    0.0000 H       1  UNL1        0.1036
     10 H           1.4103   -1.0609    0.0000 H       1  UNL1        0.1029
     11 H           3.6446    1.4571    0.0000 H       1  UNL1        0.1082
@<TRIPOS>BOND
     1     1     5   ar
     2     1     6   ar
     3     2     7    2
     4     3     4   ar
     5     3     5   ar
     6     3     7    1
     7     4     6   ar
     8     4     8    1
     9     5     9    1
    10     6    10    1
    11     7    11    1
