@<TRIPOS>MOLECULE
IMPHY004800
 74 78 0 0 0
SMALL
GASTEIGER

@<TRIPOS>ATOM
      1 O           6.9343   -0.2500    0.0000 O.3     1  UNL1       -0.3313
      2 O           6.0682   -2.7500    0.0000 O.3     1  UNL1       -0.3461
      3 O           4.3362   -2.7500    0.0000 O.3     1  UNL1       -0.3431
      4 O           7.8003   -2.7500    0.0000 O.3     1  UNL1       -0.3865
      5 O           9.5323   -1.7500    0.0000 O.3     1  UNL1       -0.3864
      6 O           7.8003    1.2500    0.0000 O.3     1  UNL1       -0.4532
      7 O           9.5323    0.2500    0.0000 O.3     1  UNL1       -0.3829
      8 O           6.0682   -4.7500    0.0000 O.3     1  UNL1       -0.3841
      9 O           4.3362   -5.7500    0.0000 O.3     1  UNL1       -0.3864
     10 O           2.6042   -4.7500    0.0000 O.3     1  UNL1       -0.3866
     11 O           6.0682    3.2500    0.0000 O.2     1  UNL1       -0.4507
     12 O           6.0682    0.2500    0.0000 O.2     1  UNL1       -0.2830
     13 O           4.3198    0.2154    0.0000 O.3     1  UNL1       -0.5058
     14 O           2.5381    3.2742    0.0000 O.3     1  UNL1       -0.5065
     15 O          10.3984    2.7500    0.0000 O.3     1  UNL1       -0.5032
     16 O           8.6663    5.7500    0.0000 O.3     1  UNL1       -0.5032
     17 O          10.3984    4.7500    0.0000 O.3     1  UNL1       -0.5009
     18 C           6.9343   -1.2500    0.0000 C.3     1  UNL1        0.1144
     19 C           7.8003   -1.7500    0.0000 C.3     1  UNL1        0.1120
     20 C           8.6663   -1.2500    0.0000 C.3     1  UNL1        0.1152
     21 C           8.6663   -0.2500    0.0000 C.3     1  UNL1        0.1454
     22 C           5.2022   -4.2500    0.0000 C.3     1  UNL1        0.1341
     23 C           5.2022   -3.2500    0.0000 C.3     1  UNL1        0.1879
     24 C           4.3362   -4.7500    0.0000 C.3     1  UNL1        0.1140
     25 C           3.4702   -4.2500    0.0000 C.3     1  UNL1        0.1095
     26 C           7.8003    0.2500    0.0000 C.3     1  UNL1        0.2311
     27 C           6.0682   -1.7500    0.0000 C.3     1  UNL1        0.0796
     28 C           3.4702   -3.2500    0.0000 C.3     1  UNL1        0.0873
     29 C           2.6042   -2.7500    0.0000 C.3     1  UNL1       -0.0361
     30 C           6.9343    1.7500    0.0000 C.ar    1  UNL1        0.2138
     31 C           6.9343    2.7500    0.0000 C.ar    1  UNL1        0.1812
     32 C           6.0682    1.2500    0.0000 C.ar    1  UNL1        0.2382
     33 C           5.2022    1.7500    0.0000 C.ar    1  UNL1        0.1092
     34 C           7.8003    3.2500    0.0000 C.ar    1  UNL1        0.0282
     35 C           5.2022    2.7500    0.0000 C.ar    1  UNL1        0.1465
     36 C           4.3083    1.2153    0.0000 C.ar    1  UNL1        0.1348
     37 C           4.3083    3.2847    0.0000 C.ar    1  UNL1        0.0231
     38 C           7.8003    4.2500    0.0000 C.ar    1  UNL1       -0.0055
     39 C           8.6663    2.7500    0.0000 C.ar    1  UNL1       -0.0055
     40 C           3.4022    1.7292    0.0000 C.ar    1  UNL1        0.0223
     41 C           3.4022    2.7708    0.0000 C.ar    1  UNL1        0.1239
     42 C           9.5323    3.2500    0.0000 C.ar    1  UNL1        0.1626
     43 C           8.6663    4.7500    0.0000 C.ar    1  UNL1        0.1626
     44 C           9.5323    4.2500    0.0000 C.ar    1  UNL1        0.2006
     45 H           6.3973   -0.9400    0.0000 H       1  UNL1        0.0647
     46 H           8.3372   -2.0600    0.0000 H       1  UNL1        0.0647
     47 H           9.2033   -0.9400    0.0000 H       1  UNL1        0.0648
     48 H           8.6663    0.3700    0.0000 H       1  UNL1        0.0683
     49 H           5.2022   -4.8700    0.0000 H       1  UNL1        0.0671
     50 H           5.2022   -2.6300    0.0000 H       1  UNL1        0.0937
     51 H           3.7993   -5.0600    0.0000 H       1  UNL1        0.0648
     52 H           2.9332   -3.9400    0.0000 H       1  UNL1        0.0646
     53 H           7.2634    0.5600    0.0000 H       1  UNL1        0.1084
     54 H           5.8562   -1.1674    0.0000 H       1  UNL1        0.0587
     55 H           5.4577   -1.8577    0.0000 H       1  UNL1        0.0587
     56 H           3.4702   -2.6300    0.0000 H       1  UNL1        0.0621
     57 H           2.9141   -2.2131    0.0000 H       1  UNL1        0.0255
     58 H           2.0672   -2.4400    0.0000 H       1  UNL1        0.0255
     59 H           2.2942   -3.2869    0.0000 H       1  UNL1        0.0255
     60 H           7.2634   -3.0600    0.0000 H       1  UNL1        0.2100
     61 H           9.5323   -2.3700    0.0000 H       1  UNL1        0.2100
     62 H          10.0693   -0.0600    0.0000 H       1  UNL1        0.2102
     63 H           6.6052   -4.4400    0.0000 H       1  UNL1        0.2101
     64 H           3.7993   -6.0600    0.0000 H       1  UNL1        0.2100
     65 H           2.0672   -4.4400    0.0000 H       1  UNL1        0.2100
     66 H           4.3154    3.9046    0.0000 H       1  UNL1        0.0691
     67 H           7.2634    4.5600    0.0000 H       1  UNL1        0.0662
     68 H           8.6663    2.1300    0.0000 H       1  UNL1        0.0662
     69 H           2.8665    1.4171    0.0000 H       1  UNL1        0.0691
     70 H           3.7865   -0.1008    0.0000 H       1  UNL1        0.2922
     71 H           2.0000    2.9662    0.0000 H       1  UNL1        0.2921
     72 H          10.3984    2.1300    0.0000 H       1  UNL1        0.2923
     73 H           8.1294    6.0600    0.0000 H       1  UNL1        0.2923
     74 H          10.3984    5.3700    0.0000 H       1  UNL1        0.2924
@<TRIPOS>BOND
     1     1    18    1
     2     1    26    1
     3    23     2    1
     4     2    27    1
     5     3    23    1
     6     3    28    1
     7    19     4    1
     8     4    60    1
     9     5    20    1
    10     5    61    1
    11    26     6    1
    12     6    30    1
    13     7    21    1
    14     7    62    1
    15     8    22    1
    16     8    63    1
    17    24     9    1
    18     9    64    1
    19    25    10    1
    20    10    65    1
    21    11    31   ar
    22    11    35   ar
    23    12    32    2
    24    13    36    1
    25    13    70    1
    26    14    41    1
    27    14    71    1
    28    15    42    1
    29    15    72    1
    30    16    43    1
    31    16    73    1
    32    17    44    1
    33    17    74    1
    34    18    19    1
    35    18    27    1
    36    18    45    1
    37    19    20    1
    38    19    46    1
    39    20    21    1
    40    20    47    1
    41    21    26    1
    42    21    48    1
    43    22    23    1
    44    22    24    1
    45    22    49    1
    46    23    50    1
    47    24    25    1
    48    24    51    1
    49    25    28    1
    50    25    52    1
    51    26    53    1
    52    27    54    1
    53    27    55    1
    54    28    29    1
    55    28    56    1
    56    29    57    1
    57    29    58    1
    58    29    59    1
    59    30    31   ar
    60    30    32   ar
    61    31    34    1
    62    32    33   ar
    63    33    35   ar
    64    33    36   ar
    65    34    38   ar
    66    34    39   ar
    67    35    37   ar
    68    36    40   ar
    69    37    41   ar
    70    37    66    1
    71    38    43   ar
    72    38    67    1
    73    39    42   ar
    74    39    68    1
    75    40    41   ar
    76    40    69    1
    77    42    44   ar
    78    43    44   ar
