@<TRIPOS>MOLECULE
IMPHY000477
 20 23 0 0 0
SMALL
GASTEIGER

@<TRIPOS>ATOM
      1 C           2.6625    3.3218    0.0000 C.3     1  UNL1        0.0445
      2 C           3.5129    2.7784    0.0000 C.3     1  UNL1        0.1379
      3 C           1.7713    2.8614    0.0000 C.3     1  UNL1        0.1002
      4 C           2.7095    4.3304    0.0000 C.3     1  UNL1        0.0197
      5 C           3.5004    3.7713    0.0000 C.3     1  UNL1        0.0040
      6 C           3.4643    1.7729    0.0000 C.3     1  UNL1        0.1304
      7 C           4.4134    3.2388    0.0000 C.3     1  UNL1        0.0311
      8 O           4.4792    2.1911    0.0000 O.3     1  UNL1       -0.2251
      9 C           1.7259    1.8637    0.0000 C.3     1  UNL1        0.1838
     10 N           0.9272    3.4064    0.0000 N.3     1  UNL1       -0.2696
     11 C           0.9742    4.4072    0.0000 C.3     1  UNL1        0.0723
     12 C           4.4604    4.2521    0.0000 C.3     1  UNL1        0.0040
     13 C           2.5669    1.3109    0.0000 C.3     1  UNL1        0.0545
     14 C           3.0791    2.2459    0.0000 C.2     1  UNL1        0.3189
     15 O           2.2318    2.2459    0.0000 O.3     1  UNL1       -0.4508
     16 C           0.0000    2.9757    0.0000 C.3     1  UNL1        0.0897
     17 C           2.5716    0.3978    0.0000 C.3     1  UNL1        0.0041
     18 O           3.2889    2.6672    0.0000 O.2     1  UNL1       -0.2500
     19 C           3.5004    0.0000    0.0000 C.3     1  UNL1        0.0001
     20 C           1.8731    0.0376    0.0000 C.3     1  UNL1        0.0001
@<TRIPOS>BOND
     1     1     2    1
     2     1     3    1
     3     1     4    1
     4     1     5    1
     5     2     6    1
     6     2     7    1
     7     2     8    1
     8     3     9    1
     9     3    10    1
    10     4    11    1
    11     4    12    1
    12     6    13    1
    13     6    14    1
    14     7    12    1
    15     9    13    1
    16     9    15    1
    17    10    11    1
    18    10    16    1
    19    13    17    1
    20    14    15    1
    21    14    18    2
    22    17    19    1
    23    17    20    1
