@<TRIPOS>MOLECULE
IMPHY015800
 40 42 0 0 0
SMALL
GASTEIGER

@<TRIPOS>ATOM
      1 O           6.4417   -0.0976    0.0000 O.2     1  UNL1       -0.3007
      2 C           3.9985   -0.3299    0.0000 C.3     1  UNL1       -0.0314
      3 C           3.1621    0.0729    0.0000 C.3     1  UNL1       -0.0291
      4 C           4.8348    0.0729    0.0000 C.3     1  UNL1       -0.0195
      5 C           3.1514   -0.7888    0.0000 C.3     1  UNL1       -0.0277
      6 C           4.8535   -0.7888    0.0000 C.3     1  UNL1        0.0232
      7 C           2.9556    0.9779    0.0000 C.3     1  UNL1       -0.0315
      8 C           4.4917   -1.2993    0.0000 C.3     1  UNL1       -0.0491
      9 C           3.6195   -1.7036    0.0000 C.3     1  UNL1       -0.0490
     10 C           5.0414    0.9779    0.0000 C.3     1  UNL1       -0.0467
     11 C           3.5344    1.7036    0.0000 C.3     1  UNL1       -0.0476
     12 C           4.4626    1.7036    0.0000 C.3     1  UNL1       -0.0520
     13 C           5.8297   -0.0283    0.0000 C.3     1  UNL1       -0.0587
     14 C           2.1294    1.5412    0.0000 C.3     1  UNL1       -0.0595
     15 C           2.0000    0.6832    0.0000 C.3     1  UNL1       -0.0595
     16 C           5.8471   -0.9017    0.0000 C.2     1  UNL1        0.1242
     17 H           4.5859   -0.5282    0.0000 H       1  UNL1        0.0309
     18 H           2.5456    0.0073    0.0000 H       1  UNL1        0.0312
     19 H           2.5478   -0.9303    0.0000 H       1  UNL1        0.0310
     20 H           4.8184   -1.4078    0.0000 H       1  UNL1        0.0383
     21 H           4.7593   -1.8586    0.0000 H       1  UNL1        0.0268
     22 H           5.0477   -1.0249    0.0000 H       1  UNL1        0.0268
     23 H           3.0639   -1.9788    0.0000 H       1  UNL1        0.0268
     24 H           3.8874   -2.2626    0.0000 H       1  UNL1        0.0268
     25 H           5.6000    0.7089    0.0000 H       1  UNL1        0.0271
     26 H           5.4279    1.4626    0.0000 H       1  UNL1        0.0271
     27 H           3.6723    2.3080    0.0000 H       1  UNL1        0.0271
     28 H           2.9758    1.9726    0.0000 H       1  UNL1        0.0271
     29 H           5.0212    1.9726    0.0000 H       1  UNL1        0.0266
     30 H           4.3246    2.3080    0.0000 H       1  UNL1        0.0266
     31 H           5.7669   -0.6451    0.0000 H       1  UNL1        0.0235
     32 H           6.4465   -0.0911    0.0000 H       1  UNL1        0.0235
     33 H           5.8924    0.5885    0.0000 H       1  UNL1        0.0235
     34 H           2.4787    2.0535    0.0000 H       1  UNL1        0.0235
     35 H           1.6172    1.8905    0.0000 H       1  UNL1        0.0235
     36 H           1.7801    1.0290    0.0000 H       1  UNL1        0.0235
     37 H           1.8173    1.2756    0.0000 H       1  UNL1        0.0235
     38 H           1.4075    0.5005    0.0000 H       1  UNL1        0.0235
     39 H           2.1827    0.0907    0.0000 H       1  UNL1        0.0235
     40 H           6.0945   -1.4702    0.0000 H       1  UNL1        0.1029
@<TRIPOS>BOND
     1     1    16    2
     2     2     3    1
     3     2     4    1
     4     2     8    1
     5     2    17    1
     6     3     5    1
     7     3     7    1
     8     3    18    1
     9     4     6    1
    10     4    10    1
    11     4    13    1
    12     5     6    1
    13     5     9    1
    14     5    19    1
    15     6    16    1
    16     6    20    1
    17     7    11    1
    18     7    14    1
    19     7    15    1
    20     8     9    1
    21     8    21    1
    22     8    22    1
    23     9    23    1
    24     9    24    1
    25    10    12    1
    26    10    25    1
    27    10    26    1
    28    11    12    1
    29    11    27    1
    30    11    28    1
    31    12    29    1
    32    12    30    1
    33    13    31    1
    34    13    32    1
    35    13    33    1
    36    14    34    1
    37    14    35    1
    38    14    36    1
    39    15    37    1
    40    15    38    1
    41    15    39    1
    42    16    40    1
