@<TRIPOS>MOLECULE
IMPHY000956
 171 179 0 0 0
SMALL
GASTEIGER

@<TRIPOS>ATOM
      1 O          10.1805    3.4856    0.0000 O.3     1  UNL1       -0.3915
      2 O           5.7625    6.0137    0.0000 O.3     1  UNL1       -0.3911
      3 O          11.1384   -0.1792    0.0000 O.3     1  UNL1       -0.4589
      4 O           3.9791    5.9793    0.0000 O.3     1  UNL1       -0.4642
      5 O          10.2724   -1.6792    0.0000 O.2     1  UNL1       -0.2478
      6 O          12.8705   -1.1792    0.0000 O.3     1  UNL1       -0.3314
      7 O           4.8277    7.4892    0.0000 O.2     1  UNL1       -0.2512
      8 O          11.1384   -3.1792    0.0000 O.3     1  UNL1       -0.3860
      9 O          12.8705   -4.1792    0.0000 O.3     1  UNL1       -0.3400
     10 O          14.6025   -1.1792    0.0000 O.3     1  UNL1       -0.3174
     11 O          14.6025   -3.1792    0.0000 O.3     1  UNL1       -0.3377
     12 O          11.1384   -4.1792    0.0000 O.3     1  UNL1       -0.3431
     13 O          15.4685    0.3208    0.0000 O.3     1  UNL1       -0.3404
     14 O          15.4685   -1.6792    0.0000 O.3     1  UNL1       -0.3405
     15 O          12.8705   -6.1792    0.0000 O.3     1  UNL1       -0.3841
     16 O          12.8705   -0.1792    0.0000 O.3     1  UNL1       -0.3841
     17 O          16.3346   -4.1792    0.0000 O.3     1  UNL1       -0.3841
     18 O          11.1384   -7.1792    0.0000 O.3     1  UNL1       -0.3864
     19 O          12.8705    1.8208    0.0000 O.3     1  UNL1       -0.3864
     20 O           9.4064   -6.1792    0.0000 O.3     1  UNL1       -0.3866
     21 O          18.0666   -3.1792    0.0000 O.3     1  UNL1       -0.3864
     22 O          14.6025    2.8208    0.0000 O.3     1  UNL1       -0.3865
     23 O          18.0666   -1.1792    0.0000 O.3     1  UNL1       -0.3865
     24 O          16.3346    2.8208    0.0000 O.3     1  UNL1       -0.3924
     25 O          17.2006    0.3208    0.0000 O.3     1  UNL1       -0.3924
     26 C           7.5184    2.9512    0.0000 C.3     1  UNL1       -0.0170
     27 C           7.5223    1.9512    0.0000 C.3     1  UNL1       -0.0256
     28 C           8.4183    1.4200    0.0000 C.3     1  UNL1       -0.0225
     29 C           6.6505    3.4479    0.0000 C.3     1  UNL1       -0.0027
     30 C           9.3224    1.9374    0.0000 C.3     1  UNL1       -0.0008
     31 C           8.4103    3.4893    0.0000 C.3     1  UNL1       -0.0201
     32 C           5.7864    2.9445    0.0000 C.2     1  UNL1       -0.0631
     33 C           9.3184    2.9790    0.0000 C.3     1  UNL1        0.0597
     34 C          10.2682    1.4058    0.0000 C.3     1  UNL1        0.0078
     35 C           4.8745    3.4479    0.0000 C.3     1  UNL1       -0.0078
     36 C           4.8624    4.4894    0.0000 C.3     1  UNL1        0.0373
     37 C           6.6625    4.4894    0.0000 C.3     1  UNL1       -0.0166
     38 C           6.6582    1.4479    0.0000 C.3     1  UNL1       -0.0306
     39 C           8.3974    0.3352    0.0000 C.3     1  UNL1       -0.0436
     40 C           5.7625    5.0137    0.0000 C.3     1  UNL1        0.0653
     41 C           7.8568    3.8922    0.0000 C.3     1  UNL1       -0.0584
     42 C          10.2724    0.3208    0.0000 C.3     1  UNL1        0.1086
     43 C           5.7902    1.9446    0.0000 C.2     1  UNL1       -0.0836
     44 C           7.5503    0.9234    0.0000 C.3     1  UNL1       -0.0589
     45 C           9.3307   -0.2181    0.0000 C.3     1  UNL1       -0.0146
     46 C           7.2903    4.2164    0.0000 C.3     1  UNL1       -0.0552
     47 C           3.9498    2.8802    0.0000 C.3     1  UNL1       -0.0406
     48 C           3.9249    5.0356    0.0000 C.3     1  UNL1       -0.0409
     49 C           2.9999    3.4045    0.0000 C.3     1  UNL1       -0.0343
     50 C           2.9873    4.4894    0.0000 C.3     1  UNL1       -0.0471
     51 C           4.8508    5.4894    0.0000 C.3     1  UNL1        0.1009
     52 C          10.7615    2.2756    0.0000 C.3     1  UNL1       -0.0561
     53 C          11.2682    1.4135    0.0000 C.3     1  UNL1       -0.0561
     54 C           2.0000    3.3891    0.0000 C.3     1  UNL1       -0.0598
     55 C           2.5133    2.5309    0.0000 C.3     1  UNL1       -0.0598
     56 C          11.1384   -1.1792    0.0000 C.2     1  UNL1        0.3393
     57 C           3.9675    6.9792    0.0000 C.2     1  UNL1        0.3040
     58 C          12.0044   -1.6792    0.0000 C.3     1  UNL1        0.1861
     59 C          12.0044   -2.6792    0.0000 C.3     1  UNL1        0.1205
     60 C           3.0958    7.4692    0.0000 C.3     1  UNL1        0.0332
     61 C          12.8705   -3.1792    0.0000 C.3     1  UNL1        0.1214
     62 C          13.7365   -1.6792    0.0000 C.3     1  UNL1        0.1918
     63 C          13.7365   -2.6792    0.0000 C.3     1  UNL1        0.1411
     64 C          12.0044   -4.6792    0.0000 C.3     1  UNL1        0.1883
     65 C          14.6025   -0.1792    0.0000 C.3     1  UNL1        0.1909
     66 C          15.4685   -2.6792    0.0000 C.3     1  UNL1        0.1885
     67 C          12.0044   -5.6792    0.0000 C.3     1  UNL1        0.1341
     68 C          13.7365    0.3208    0.0000 C.3     1  UNL1        0.1342
     69 C          16.3346   -3.1792    0.0000 C.3     1  UNL1        0.1341
     70 C          11.1384   -6.1792    0.0000 C.3     1  UNL1        0.1140
     71 C          10.2724   -4.6792    0.0000 C.3     1  UNL1        0.0873
     72 C          13.7365    1.3208    0.0000 C.3     1  UNL1        0.1141
     73 C          10.2724   -5.6792    0.0000 C.3     1  UNL1        0.1095
     74 C          17.2006   -2.6792    0.0000 C.3     1  UNL1        0.1141
     75 C          15.4685    1.3208    0.0000 C.3     1  UNL1        0.1130
     76 C          16.3346   -1.1792    0.0000 C.3     1  UNL1        0.1130
     77 C          14.6025    1.8208    0.0000 C.3     1  UNL1        0.1119
     78 C          17.2006   -1.6792    0.0000 C.3     1  UNL1        0.1119
     79 C           9.4064   -4.1792    0.0000 C.3     1  UNL1       -0.0361
     80 C          16.3346    1.8208    0.0000 C.3     1  UNL1        0.0730
     81 C          16.3346   -0.1792    0.0000 C.3     1  UNL1        0.0730
     82 H           8.0604    2.2592    0.0000 H       1  UNL1        0.0315
     83 H           9.8569    2.2515    0.0000 H       1  UNL1        0.0337
     84 H           8.8021    3.9698    0.0000 H       1  UNL1        0.0296
     85 H           8.0039    3.9575    0.0000 H       1  UNL1        0.0296
     86 H           9.8571    2.6721    0.0000 H       1  UNL1        0.0596
     87 H           4.8941    2.5981    0.0000 H       1  UNL1        0.0353
     88 H           7.2721    4.3763    0.0000 H       1  UNL1        0.0299
     89 H           6.8783    5.0707    0.0000 H       1  UNL1        0.0299
     90 H           6.2615    0.9714    0.0000 H       1  UNL1        0.0310
     91 H           7.0586    0.9745    0.0000 H       1  UNL1        0.0310
     92 H           7.7887    0.4531    0.0000 H       1  UNL1        0.0272
     93 H           8.1771   -0.2443    0.0000 H       1  UNL1        0.0272
     94 H           6.3000    5.3227    0.0000 H       1  UNL1        0.0600
     95 H           8.4402    3.6824    0.0000 H       1  UNL1        0.0235
     96 H           8.0666    4.4756    0.0000 H       1  UNL1        0.0235
     97 H           7.2734    4.1020    0.0000 H       1  UNL1        0.0235
     98 H          10.8087    0.6318    0.0000 H       1  UNL1        0.0739
     99 H           5.2545    1.6325    0.0000 H       1  UNL1        0.0572
    100 H           7.2424    1.4615    0.0000 H       1  UNL1        0.0235
    101 H           7.0122    0.6154    0.0000 H       1  UNL1        0.0235
    102 H           7.8583    0.3852    0.0000 H       1  UNL1        0.0235
    103 H           8.9279   -0.6895    0.0000 H       1  UNL1        0.0301
    104 H           9.7261   -0.6956    0.0000 H       1  UNL1        0.0301
    105 H           7.7668    3.8197    0.0000 H       1  UNL1        0.0238
    106 H           7.6870    4.6929    0.0000 H       1  UNL1        0.0238
    107 H           6.8138    4.6131    0.0000 H       1  UNL1        0.0238
    108 H           3.5617    2.3967    0.0000 H       1  UNL1        0.0276
    109 H           4.3598    2.4152    0.0000 H       1  UNL1        0.0276
    110 H           4.3240    5.5100    0.0000 H       1  UNL1        0.0273
    111 H           3.5257    5.5100    0.0000 H       1  UNL1        0.0273
    112 H           2.7715    5.0707    0.0000 H       1  UNL1        0.0271
    113 H           2.3777    4.3763    0.0000 H       1  UNL1        0.0271
    114 H           5.4626    5.3888    0.0000 H       1  UNL1        0.0704
    115 H           5.0561    6.0744    0.0000 H       1  UNL1        0.0704
    116 H          11.2730    0.7935    0.0000 H       1  UNL1        0.0236
    117 H          11.8882    1.4182    0.0000 H       1  UNL1        0.0236
    118 H          11.2634    2.0334    0.0000 H       1  UNL1        0.0236
    119 H          11.3008    1.9698    0.0000 H       1  UNL1        0.0236
    120 H          11.0674    2.8149    0.0000 H       1  UNL1        0.0236
    121 H          10.2222    2.5815    0.0000 H       1  UNL1        0.0236
    122 H          10.1757    4.1056    0.0000 H       1  UNL1        0.2098
    123 H           6.2994    6.3237    0.0000 H       1  UNL1        0.2098
    124 H           1.9716    2.8326    0.0000 H       1  UNL1        0.0235
    125 H           2.2116    1.9892    0.0000 H       1  UNL1        0.0235
    126 H           3.0549    2.2292    0.0000 H       1  UNL1        0.0235
    127 H           1.9904    4.0090    0.0000 H       1  UNL1        0.0235
    128 H           1.3801    3.3795    0.0000 H       1  UNL1        0.0235
    129 H           2.0096    2.7692    0.0000 H       1  UNL1        0.0235
    130 H          12.0044   -1.0592    0.0000 H       1  UNL1        0.0741
    131 H          12.0044   -3.2992    0.0000 H       1  UNL1        0.0652
    132 H           3.3996    8.0097    0.0000 H       1  UNL1        0.0342
    133 H           2.5553    7.7730    0.0000 H       1  UNL1        0.0342
    134 H           2.7920    6.9287    0.0000 H       1  UNL1        0.0342
    135 H          13.4074   -3.4892    0.0000 H       1  UNL1        0.0652
    136 H          14.2734   -1.9892    0.0000 H       1  UNL1        0.0939
    137 H          13.7365   -3.2992    0.0000 H       1  UNL1        0.0675
    138 H          10.6015   -2.8692    0.0000 H       1  UNL1        0.2100
    139 H          12.5414   -4.9892    0.0000 H       1  UNL1        0.0938
    140 H          14.0656   -0.4892    0.0000 H       1  UNL1        0.0938
    141 H          15.4685   -3.2992    0.0000 H       1  UNL1        0.0938
    142 H          12.0044   -6.2992    0.0000 H       1  UNL1        0.0671
    143 H          13.1996    0.6308    0.0000 H       1  UNL1        0.0671
    144 H          16.8715   -3.4892    0.0000 H       1  UNL1        0.0671
    145 H          10.6015   -6.4892    0.0000 H       1  UNL1        0.0648
    146 H          10.2724   -4.0592    0.0000 H       1  UNL1        0.0621
    147 H          13.7365    1.9408    0.0000 H       1  UNL1        0.0648
    148 H           9.7355   -5.3692    0.0000 H       1  UNL1        0.0646
    149 H          17.7375   -2.3692    0.0000 H       1  UNL1        0.0648
    150 H          16.0055    1.0108    0.0000 H       1  UNL1        0.0647
    151 H          15.7976   -0.8692    0.0000 H       1  UNL1        0.0647
    152 H          15.1395    2.1308    0.0000 H       1  UNL1        0.0647
    153 H          17.2006   -1.0592    0.0000 H       1  UNL1        0.0647
    154 H          12.8705   -6.7992    0.0000 H       1  UNL1        0.2101
    155 H          12.3335    0.1308    0.0000 H       1  UNL1        0.2101
    156 H          16.8715   -4.4892    0.0000 H       1  UNL1        0.2101
    157 H           9.7164   -3.6423    0.0000 H       1  UNL1        0.0255
    158 H           8.8694   -3.8692    0.0000 H       1  UNL1        0.0255
    159 H           9.0964   -4.7162    0.0000 H       1  UNL1        0.0255
    160 H          10.6015   -7.4892    0.0000 H       1  UNL1        0.2100
    161 H          16.5466    1.2382    0.0000 H       1  UNL1        0.0584
    162 H          16.9452    1.9284    0.0000 H       1  UNL1        0.0584
    163 H          16.1225    0.4034    0.0000 H       1  UNL1        0.0584
    164 H          15.7240   -0.2869    0.0000 H       1  UNL1        0.0584
    165 H          12.8705    2.4408    0.0000 H       1  UNL1        0.2100
    166 H           8.8694   -5.8692    0.0000 H       1  UNL1        0.2100
    167 H          18.0666   -3.7992    0.0000 H       1  UNL1        0.2100
    168 H          14.0656    3.1308    0.0000 H       1  UNL1        0.2100
    169 H          18.6036   -1.4892    0.0000 H       1  UNL1        0.2100
    170 H          16.8715    3.1308    0.0000 H       1  UNL1        0.2095
    171 H          17.7375    0.0108    0.0000 H       1  UNL1        0.2095
@<TRIPOS>BOND
     1    33     1    1
     2     1   122    1
     3    40     2    1
     4     2   123    1
     5     3    42    1
     6     3    56    1
     7     4    51    1
     8     4    57    1
     9     5    56    2
    10     6    58    1
    11     6    62    1
    12     7    57    2
    13    59     8    1
    14     8   138    1
    15    61     9    1
    16    64     9    1
    17    62    10    1
    18    65    10    1
    19    63    11    1
    20    66    11    1
    21    12    64    1
    22    12    71    1
    23    13    65    1
    24    13    75    1
    25    14    66    1
    26    14    76    1
    27    67    15    1
    28    15   154    1
    29    68    16    1
    30    16   155    1
    31    69    17    1
    32    17   156    1
    33    70    18    1
    34    18   160    1
    35    72    19    1
    36    19   165    1
    37    73    20    1
    38    20   166    1
    39    74    21    1
    40    21   167    1
    41    77    22    1
    42    22   168    1
    43    78    23    1
    44    23   169    1
    45    24    80    1
    46    24   170    1
    47    25    81    1
    48    25   171    1
    49    26    27    1
    50    26    29    1
    51    26    31    1
    52    26    41    1
    53    27    28    1
    54    27    38    1
    55    27    82    1
    56    28    30    1
    57    28    39    1
    58    28    44    1
    59    29    32    1
    60    29    37    1
    61    29    46    1
    62    30    33    1
    63    30    34    1
    64    30    83    1
    65    31    33    1
    66    31    84    1
    67    31    85    1
    68    32    35    1
    69    32    43    2
    70    33    86    1
    71    34    42    1
    72    34    52    1
    73    34    53    1
    74    35    36    1
    75    35    47    1
    76    35    87    1
    77    36    40    1
    78    36    48    1
    79    36    51    1
    80    37    40    1
    81    37    88    1
    82    37    89    1
    83    38    43    1
    84    38    90    1
    85    38    91    1
    86    39    45    1
    87    39    92    1
    88    39    93    1
    89    40    94    1
    90    41    95    1
    91    41    96    1
    92    41    97    1
    93    42    45    1
    94    42    98    1
    95    43    99    1
    96    44   100    1
    97    44   101    1
    98    44   102    1
    99    45   103    1
   100    45   104    1
   101    46   105    1
   102    46   106    1
   103    46   107    1
   104    47    49    1
   105    47   108    1
   106    47   109    1
   107    48    50    1
   108    48   110    1
   109    48   111    1
   110    49    50    1
   111    49    54    1
   112    49    55    1
   113    50   112    1
   114    50   113    1
   115    51   114    1
   116    51   115    1
   117    52   119    1
   118    52   120    1
   119    52   121    1
   120    53   116    1
   121    53   117    1
   122    53   118    1
   123    54   127    1
   124    54   128    1
   125    54   129    1
   126    55   124    1
   127    55   125    1
   128    55   126    1
   129    58    56    1
   130    57    60    1
   131    58    59    1
   132    58   130    1
   133    59    61    1
   134    59   131    1
   135    60   132    1
   136    60   133    1
   137    60   134    1
   138    61    63    1
   139    61   135    1
   140    62    63    1
   141    62   136    1
   142    63   137    1
   143    64    67    1
   144    64   139    1
   145    65    68    1
   146    65   140    1
   147    66    69    1
   148    66   141    1
   149    67    70    1
   150    67   142    1
   151    68    72    1
   152    68   143    1
   153    69    74    1
   154    69   144    1
   155    70    73    1
   156    70   145    1
   157    71    73    1
   158    71    79    1
   159    71   146    1
   160    72    77    1
   161    72   147    1
   162    73   148    1
   163    74    78    1
   164    74   149    1
   165    75    77    1
   166    75    80    1
   167    75   150    1
   168    76    78    1
   169    76    81    1
   170    76   151    1
   171    77   152    1
   172    78   153    1
   173    79   157    1
   174    79   158    1
   175    79   159    1
   176    80   161    1
   177    80   162    1
   178    81   163    1
   179    81   164    1
