@<TRIPOS>MOLECULE
IMPHY010930
 48 52 0 0 0
SMALL
GASTEIGER

@<TRIPOS>ATOM
      1 O           7.6789    0.3801    0.0000 O.3     1  UNL1       -0.4646
      2 O           6.8129    1.8801    0.0000 O.2     1  UNL1       -0.2453
      3 N           3.3369   -0.8932    0.0000 N.3     1  UNL1       -0.2978
      4 N           4.9022    1.8180    0.0000 N.pl3   1  UNL1       -0.3164
      5 C           4.2620   -0.5926    0.0000 C.3     1  UNL1        0.0287
      6 C           4.2620    0.3801    0.0000 C.3     1  UNL1        0.0528
      7 C           5.1045   -1.0790    0.0000 C.3     1  UNL1       -0.0173
      8 C           5.9469   -0.5926    0.0000 C.3     1  UNL1       -0.0022
      9 C           3.3369    0.6807    0.0000 C.3     1  UNL1       -0.0238
     10 C           5.1045    0.8665    0.0000 C.2     1  UNL1        0.0306
     11 C           2.7652   -0.1063    0.0000 C.3     1  UNL1        0.0004
     12 C           5.3422   -1.6410    0.0000 C.3     1  UNL1       -0.0328
     13 C           4.1101   -1.6410    0.0000 C.3     1  UNL1       -0.0002
     14 C           5.9469    0.3801    0.0000 C.2     1  UNL1        0.0578
     15 C           3.5392    1.0310    0.0000 C.ar    1  UNL1       -0.0130
     16 C           4.9309   -2.0638    0.0000 C.3     1  UNL1       -0.0510
     17 C           3.9348    1.9196    0.0000 C.ar    1  UNL1        0.0353
     18 C           2.5718    0.9293    0.0000 C.ar    1  UNL1       -0.0559
     19 C           6.8129    0.8801    0.0000 C.2     1  UNL1        0.3367
     20 C           5.6969   -2.7066    0.0000 C.3     1  UNL1       -0.0650
     21 C           3.3630    2.7066    0.0000 C.ar    1  UNL1       -0.0403
     22 C           2.0000    1.7163    0.0000 C.ar    1  UNL1       -0.0614
     23 C           2.3956    2.6049    0.0000 C.ar    1  UNL1       -0.0600
     24 C           8.5450    0.8801    0.0000 C.3     1  UNL1        0.0820
     25 H           3.7928   -1.3014    0.0000 H       1  UNL1        0.0478
     26 H           5.6124   -1.4346    0.0000 H       1  UNL1        0.0322
     27 H           6.7680   -0.8124    0.0000 H       1  UNL1        0.0355
     28 H           3.5891    1.2471    0.0000 H       1  UNL1        0.0290
     29 H           2.8000    0.9907    0.0000 H       1  UNL1        0.0290
     30 H           2.3044    0.3086    0.0000 H       1  UNL1        0.0427
     31 H           2.3044   -0.5211    0.0000 H       1  UNL1        0.0427
     32 H           5.2347   -2.2516    0.0000 H       1  UNL1        0.0283
     33 H           5.9249   -1.8529    0.0000 H       1  UNL1        0.0283
     34 H           3.5767   -1.9570    0.0000 H       1  UNL1        0.0427
     35 H           4.2739   -2.2390    0.0000 H       1  UNL1        0.0427
     36 H           4.3483   -1.8518    0.0000 H       1  UNL1        0.0266
     37 H           4.6209   -2.6008    0.0000 H       1  UNL1        0.0266
     38 H           5.2666    2.3195    0.0000 H       1  UNL1        0.1519
     39 H           2.3196    0.3629    0.0000 H       1  UNL1        0.0621
     40 H           5.2983   -3.1815    0.0000 H       1  UNL1        0.0230
     41 H           6.1718   -3.1051    0.0000 H       1  UNL1        0.0230
     42 H           6.0954   -2.2317    0.0000 H       1  UNL1        0.0230
     43 H           3.6152    3.2730    0.0000 H       1  UNL1        0.0636
     44 H           1.3834    1.6515    0.0000 H       1  UNL1        0.0618
     45 H           2.0312    3.1065    0.0000 H       1  UNL1        0.0618
     46 H           8.8550    0.3432    0.0000 H       1  UNL1        0.0661
     47 H           9.0819    1.1901    0.0000 H       1  UNL1        0.0661
     48 H           8.2350    1.4170    0.0000 H       1  UNL1        0.0661
@<TRIPOS>BOND
     1     1    19    1
     2     1    24    1
     3     2    19    2
     4     3     5    1
     5     3    11    1
     6     3    13    1
     7     4    10    1
     8     4    17    1
     9     4    38    1
    10     5     6    1
    11     5     7    1
    12     5    25    1
    13     6     9    1
    14     6    10    1
    15     6    15    1
    16     7     8    1
    17     7    16    1
    18     7    26    1
    19     8    12    1
    20     8    14    1
    21     8    27    1
    22     9    11    1
    23     9    28    1
    24     9    29    1
    25    10    14    2
    26    11    30    1
    27    11    31    1
    28    12    13    1
    29    12    32    1
    30    12    33    1
    31    13    34    1
    32    13    35    1
    33    14    19    1
    34    15    17   ar
    35    15    18   ar
    36    16    20    1
    37    16    36    1
    38    16    37    1
    39    17    21   ar
    40    18    22   ar
    41    18    39    1
    42    20    40    1
    43    20    41    1
    44    20    42    1
    45    21    23   ar
    46    21    43    1
    47    22    23   ar
    48    22    44    1
    49    23    45    1
    50    24    46    1
    51    24    47    1
    52    24    48    1
