@<TRIPOS>MOLECULE
IMPHY017044
 28 27 0 0 0
SMALL
GASTEIGER

@<TRIPOS>ATOM
      1 C           3.7320   -0.0600    0.0000 C.3     1  UNL1       -0.0257
      2 C           2.8660    0.4400    0.0000 C.3     1  UNL1       -0.0499
      3 C           3.7320   -1.0600    0.0000 C.3     1  UNL1       -0.0590
      4 C           4.5981    0.4400    0.0000 C.2     1  UNL1       -0.0812
      5 C           2.0000   -0.0600    0.0000 C.3     1  UNL1       -0.0648
      6 C           5.4641   -0.0600    0.0000 C.2     1  UNL1       -0.0655
      7 C           6.3301    0.4400    0.0000 C.2     1  UNL1       -0.0633
      8 C           7.1962   -0.0600    0.0000 C.2     1  UNL1       -0.0757
      9 C           8.0622    0.4400    0.0000 C.3     1  UNL1       -0.0438
     10 C           7.1962   -1.0600    0.0000 C.3     1  UNL1       -0.0438
     11 H           4.2690   -0.3700    0.0000 H       1  UNL1        0.0340
     12 H           3.2646    0.9149    0.0000 H       1  UNL1        0.0268
     13 H           2.4675    0.9149    0.0000 H       1  UNL1        0.0268
     14 H           3.1120   -1.0600    0.0000 H       1  UNL1        0.0235
     15 H           3.7320   -1.6800    0.0000 H       1  UNL1        0.0235
     16 H           4.3520   -1.0600    0.0000 H       1  UNL1        0.0235
     17 H           4.5981    1.0600    0.0000 H       1  UNL1        0.0575
     18 H           1.6900    0.4769    0.0000 H       1  UNL1        0.0230
     19 H           1.4631   -0.3700    0.0000 H       1  UNL1        0.0230
     20 H           2.3100   -0.5969    0.0000 H       1  UNL1        0.0230
     21 H           5.4641   -0.6800    0.0000 H       1  UNL1        0.0615
     22 H           6.3301    1.0600    0.0000 H       1  UNL1        0.0617
     23 H           8.3722   -0.0969    0.0000 H       1  UNL1        0.0274
     24 H           8.5991    0.7500    0.0000 H       1  UNL1        0.0274
     25 H           7.7522    0.9769    0.0000 H       1  UNL1        0.0274
     26 H           6.5762   -1.0600    0.0000 H       1  UNL1        0.0274
     27 H           7.1962   -1.6800    0.0000 H       1  UNL1        0.0274
     28 H           7.8162   -1.0600    0.0000 H       1  UNL1        0.0274
@<TRIPOS>BOND
     1     1     2    1
     2     1     3    1
     3     1     4    1
     4     1    11    1
     5     2     5    1
     6     2    12    1
     7     2    13    1
     8     3    14    1
     9     3    15    1
    10     3    16    1
    11     4     6    2
    12     4    17    1
    13     5    18    1
    14     5    19    1
    15     5    20    1
    16     6     7    1
    17     6    21    1
    18     7     8    2
    19     7    22    1
    20     8     9    1
    21     8    10    1
    22     9    23    1
    23     9    24    1
    24     9    25    1
    25    10    26    1
    26    10    27    1
    27    10    28    1
