@<TRIPOS>MOLECULE
IMPHY017805
 32 31 0 0 0
SMALL
GASTEIGER

@<TRIPOS>ATOM
      1 O           3.7320    1.5000    0.0000 O.3     1  UNL1       -0.4610
      2 O           7.1962    1.5000    0.0000 O.3     1  UNL1       -0.4648
      3 O           6.3301    0.0000    0.0000 O.2     1  UNL1       -0.2507
      4 O           2.8660   -0.0000    0.0000 O.2     1  UNL1       -0.2512
      5 C           4.5981    1.0000    0.0000 C.3     1  UNL1        0.1131
      6 C           4.5981    0.0000    0.0000 C.3     1  UNL1       -0.0154
      7 C           5.4641    1.5000    0.0000 C.3     1  UNL1        0.0819
      8 C           3.7320   -0.5000    0.0000 C.3     1  UNL1       -0.0526
      9 C           3.7320   -1.5000    0.0000 C.3     1  UNL1       -0.0652
     10 C           6.3301    1.0000    0.0000 C.2     1  UNL1        0.3106
     11 C           2.8660    1.0000    0.0000 C.2     1  UNL1        0.3042
     12 C           8.0622    1.0000    0.0000 C.3     1  UNL1        0.0896
     13 C           2.0000    1.5000    0.0000 C.3     1  UNL1        0.0332
     14 C           8.9282    1.5000    0.0000 C.3     1  UNL1       -0.0306
     15 H           4.5981    1.6200    0.0000 H       1  UNL1        0.0739
     16 H           4.8101   -0.5826    0.0000 H       1  UNL1        0.0301
     17 H           5.2087    0.1077    0.0000 H       1  UNL1        0.0301
     18 H           5.8626    1.9750    0.0000 H       1  UNL1        0.0414
     19 H           5.0656    1.9750    0.0000 H       1  UNL1        0.0414
     20 H           3.5200    0.0826    0.0000 H       1  UNL1        0.0264
     21 H           3.1215   -0.6077    0.0000 H       1  UNL1        0.0264
     22 H           3.1120   -1.5000    0.0000 H       1  UNL1        0.0230
     23 H           3.7320   -2.1200    0.0000 H       1  UNL1        0.0230
     24 H           4.3520   -1.5000    0.0000 H       1  UNL1        0.0230
     25 H           7.6636    0.5251    0.0000 H       1  UNL1        0.0694
     26 H           8.4607    0.5251    0.0000 H       1  UNL1        0.0694
     27 H           2.3100    2.0369    0.0000 H       1  UNL1        0.0342
     28 H           1.4631    1.8100    0.0000 H       1  UNL1        0.0342
     29 H           1.6900    0.9631    0.0000 H       1  UNL1        0.0342
     30 H           9.2382    0.9631    0.0000 H       1  UNL1        0.0262
     31 H           9.4651    1.8100    0.0000 H       1  UNL1        0.0262
     32 H           8.6182    2.0369    0.0000 H       1  UNL1        0.0262
@<TRIPOS>BOND
     1     1     5    1
     2     1    11    1
     3     2    10    1
     4     2    12    1
     5     3    10    2
     6     4    11    2
     7     5     6    1
     8     5     7    1
     9     5    15    1
    10     6     8    1
    11     6    16    1
    12     6    17    1
    13     7    10    1
    14     7    18    1
    15     7    19    1
    16     8     9    1
    17     8    20    1
    18     8    21    1
    19     9    22    1
    20     9    23    1
    21     9    24    1
    22    11    13    1
    23    12    14    1
    24    12    25    1
    25    12    26    1
    26    13    27    1
    27    13    28    1
    28    13    29    1
    29    14    30    1
    30    14    31    1
    31    14    32    1
