@<TRIPOS>MOLECULE
IMPHY000292
 97 102 0 0 0
SMALL
GASTEIGER

@<TRIPOS>ATOM
      1 O           7.1728    4.0921    0.0000 O.3     1  UNL1       -0.3849
      2 O           5.0839   -1.3455    0.0000 O.3     1  UNL1       -0.3908
      3 O           4.7827    3.9531    0.0000 O.3     1  UNL1       -0.4548
      4 O           6.8671   -4.4898    0.0000 O.3     1  UNL1       -0.3450
      5 O           5.1350   -4.4898    0.0000 O.3     1  UNL1       -0.3405
      6 O           3.1343    4.4848    0.0000 O.2     1  UNL1       -0.2452
      7 O           6.8671   -6.4898    0.0000 O.3     1  UNL1       -0.3841
      8 O           4.0552    7.3400    0.0000 O.3     1  UNL1       -0.3902
      9 O           5.1350   -7.4898    0.0000 O.3     1  UNL1       -0.3864
     10 O           3.4030   -6.4898    0.0000 O.3     1  UNL1       -0.3865
     11 O           2.5369   -4.9898    0.0000 O.3     1  UNL1       -0.3924
     12 C           6.8963    1.7070    0.0000 C.3     1  UNL1       -0.0234
     13 C           7.7643    1.2104    0.0000 C.3     1  UNL1       -0.0319
     14 C           7.7681    0.2104    0.0000 C.3     1  UNL1       -0.0306
     15 C           6.9040   -0.2930    0.0000 C.3     1  UNL1       -0.0262
     16 C           7.1018    2.6796    0.0000 C.3     1  UNL1       -0.0032
     17 C           6.0322    1.2037    0.0000 C.3     1  UNL1       -0.0467
     18 C           6.8920   -1.3345    0.0000 C.3     1  UNL1        0.0181
     19 C           8.4987    1.8803    0.0000 C.3     1  UNL1       -0.0491
     20 C           6.0361    0.2037    0.0000 C.3     1  UNL1       -0.0486
     21 C           8.0901    2.7865    0.0000 C.3     1  UNL1       -0.0467
     22 C           8.6801   -0.2930    0.0000 C.3     1  UNL1       -0.0311
     23 C           6.4311    3.4214    0.0000 C.3     1  UNL1        0.1036
     24 C           6.0284    2.2037    0.0000 C.3     1  UNL1       -0.0590
     25 C           7.7920   -1.8588    0.0000 C.2     1  UNL1       -0.0624
     26 C           5.9421   -1.8588    0.0000 C.3     1  UNL1        0.0669
     27 C           8.6921   -1.3345    0.0000 C.2     1  UNL1       -0.0838
     28 C           6.0279   -0.8312    0.0000 C.3     1  UNL1       -0.0532
     29 C           7.8046   -2.9437    0.0000 C.3     1  UNL1       -0.0046
     30 C           5.7604    4.1631    0.0000 C.3     1  UNL1        0.1355
     31 C           5.9295   -2.9437    0.0000 C.3     1  UNL1        0.0007
     32 C           6.8671   -3.4898    0.0000 C.3     1  UNL1        0.0678
     33 C           5.6894    2.7507    0.0000 C.3     1  UNL1       -0.0323
     34 C           6.0674    5.1148    0.0000 C.3     1  UNL1        0.0089
     35 C           5.3966    5.8565    0.0000 C.2     1  UNL1       -0.0569
     36 C           6.0010   -4.9898    0.0000 C.3     1  UNL1        0.1882
     37 C           4.1120    4.6948    0.0000 C.2     1  UNL1        0.3377
     38 C           4.4190    5.6465    0.0000 C.2     1  UNL1        0.0608
     39 C           5.7036    6.8082    0.0000 C.3     1  UNL1       -0.0428
     40 C           6.0010   -5.9898    0.0000 C.3     1  UNL1        0.1341
     41 C           3.7482    6.3883    0.0000 C.3     1  UNL1        0.0759
     42 C           5.1350   -6.4898    0.0000 C.3     1  UNL1        0.1141
     43 C           4.2690   -4.9898    0.0000 C.3     1  UNL1        0.1130
     44 C           4.2690   -5.9898    0.0000 C.3     1  UNL1        0.1119
     45 C           3.4030   -4.4898    0.0000 C.3     1  UNL1        0.0730
     46 H           8.5426    0.8687    0.0000 H       1  UNL1        0.0309
     47 H           8.4993    0.6439    0.0000 H       1  UNL1        0.0310
     48 H           7.6385   -0.7208    0.0000 H       1  UNL1        0.0313
     49 H           7.4044    3.4740    0.0000 H       1  UNL1        0.0335
     50 H           5.8179    1.7855    0.0000 H       1  UNL1        0.0271
     51 H           5.4221    1.0937    0.0000 H       1  UNL1        0.0271
     52 H           8.8661    1.3808    0.0000 H       1  UNL1        0.0268
     53 H           9.0340    2.1931    0.0000 H       1  UNL1        0.0268
     54 H           5.4251    0.3090    0.0000 H       1  UNL1        0.0268
     55 H           5.8263   -0.3797    0.0000 H       1  UNL1        0.0268
     56 H           8.6790    2.9806    0.0000 H       1  UNL1        0.0269
     57 H           7.9590    3.3925    0.0000 H       1  UNL1        0.0269
     58 H           9.2921   -0.3920    0.0000 H       1  UNL1        0.0310
     59 H           8.8824    0.2931    0.0000 H       1  UNL1        0.0310
     60 H           6.3363    2.7418    0.0000 H       1  UNL1        0.0235
     61 H           5.4902    2.5116    0.0000 H       1  UNL1        0.0235
     62 H           5.7204    1.6656    0.0000 H       1  UNL1        0.0235
     63 H           5.4010   -2.1615    0.0000 H       1  UNL1        0.0603
     64 H           9.2314   -1.6404    0.0000 H       1  UNL1        0.0572
     65 H           6.3400   -0.2954    0.0000 H       1  UNL1        0.0239
     66 H           5.4922   -0.5191    0.0000 H       1  UNL1        0.0239
     67 H           5.7158   -1.3669    0.0000 H       1  UNL1        0.0239
     68 H           8.0204   -3.5250    0.0000 H       1  UNL1        0.0335
     69 H           8.4142   -2.8306    0.0000 H       1  UNL1        0.0335
     70 H           5.4994    3.3541    0.0000 H       1  UNL1        0.0766
     71 H           5.3199   -2.8306    0.0000 H       1  UNL1        0.0315
     72 H           5.7137   -3.5250    0.0000 H       1  UNL1        0.0315
     73 H           7.4046   -3.7988    0.0000 H       1  UNL1        0.0601
     74 H           5.2735    3.2105    0.0000 H       1  UNL1        0.0259
     75 H           5.2295    2.3348    0.0000 H       1  UNL1        0.0259
     76 H           6.1052    2.2908    0.0000 H       1  UNL1        0.0259
     77 H           7.7628    3.9017    0.0000 H       1  UNL1        0.2103
     78 H           6.6154    4.8249    0.0000 H       1  UNL1        0.0347
     79 H           6.4480    5.6042    0.0000 H       1  UNL1        0.0347
     80 H           4.5422   -1.6472    0.0000 H       1  UNL1        0.2098
     81 H           6.0010   -4.3698    0.0000 H       1  UNL1        0.0937
     82 H           6.2937    6.6179    0.0000 H       1  UNL1        0.0275
     83 H           5.8940    7.3983    0.0000 H       1  UNL1        0.0275
     84 H           5.1136    6.9986    0.0000 H       1  UNL1        0.0275
     85 H           6.0010   -6.6098    0.0000 H       1  UNL1        0.0671
     86 H           3.2002    6.6782    0.0000 H       1  UNL1        0.0609
     87 H           3.3676    5.8989    0.0000 H       1  UNL1        0.0609
     88 H           4.5981   -6.7998    0.0000 H       1  UNL1        0.0648
     89 H           4.2690   -4.3698    0.0000 H       1  UNL1        0.0647
     90 H           3.7320   -5.6798    0.0000 H       1  UNL1        0.0647
     91 H           6.8671   -7.1098    0.0000 H       1  UNL1        0.2101
     92 H           3.8015   -4.0149    0.0000 H       1  UNL1        0.0584
     93 H           3.0044   -4.0149    0.0000 H       1  UNL1        0.0584
     94 H           3.6394    7.7998    0.0000 H       1  UNL1        0.2099
     95 H           4.5981   -7.7998    0.0000 H       1  UNL1        0.2100
     96 H           3.4030   -7.1098    0.0000 H       1  UNL1        0.2100
     97 H           2.0000   -4.6798    0.0000 H       1  UNL1        0.2095
@<TRIPOS>BOND
     1    23     1    1
     2     1    77    1
     3    26     2    1
     4     2    80    1
     5     3    30    1
     6     3    37    1
     7    32     4    1
     8    36     4    1
     9     5    36    1
    10     5    43    1
    11     6    37    2
    12    40     7    1
    13     7    91    1
    14     8    41    1
    15     8    94    1
    16    42     9    1
    17     9    95    1
    18    44    10    1
    19    10    96    1
    20    11    45    1
    21    11    97    1
    22    12    13    1
    23    12    16    1
    24    12    17    1
    25    12    24    1
    26    13    14    1
    27    13    19    1
    28    13    46    1
    29    14    15    1
    30    14    22    1
    31    14    47    1
    32    15    18    1
    33    15    20    1
    34    15    48    1
    35    16    21    1
    36    16    23    1
    37    16    49    1
    38    17    20    1
    39    17    50    1
    40    17    51    1
    41    18    25    1
    42    18    26    1
    43    18    28    1
    44    19    21    1
    45    19    52    1
    46    19    53    1
    47    20    54    1
    48    20    55    1
    49    21    56    1
    50    21    57    1
    51    22    27    1
    52    22    58    1
    53    22    59    1
    54    23    30    1
    55    23    33    1
    56    24    60    1
    57    24    61    1
    58    24    62    1
    59    25    27    2
    60    25    29    1
    61    26    31    1
    62    26    63    1
    63    27    64    1
    64    28    65    1
    65    28    66    1
    66    28    67    1
    67    29    32    1
    68    29    68    1
    69    29    69    1
    70    30    34    1
    71    30    70    1
    72    31    32    1
    73    31    71    1
    74    31    72    1
    75    32    73    1
    76    33    74    1
    77    33    75    1
    78    33    76    1
    79    34    35    1
    80    34    78    1
    81    34    79    1
    82    35    38    2
    83    35    39    1
    84    36    40    1
    85    36    81    1
    86    37    38    1
    87    38    41    1
    88    39    82    1
    89    39    83    1
    90    39    84    1
    91    40    42    1
    92    40    85    1
    93    41    86    1
    94    41    87    1
    95    42    44    1
    96    42    88    1
    97    43    44    1
    98    43    45    1
    99    43    89    1
   100    44    90    1
   101    45    92    1
   102    45    93    1
