@<TRIPOS>MOLECULE
IMPHY017006
 17 17 0 0 0
SMALL
GASTEIGER

@<TRIPOS>ATOM
      1 C           2.0000    0.0000    0.0000 C.3     1  UNL1       -0.0283
      2 C           2.0000   -1.0000    0.0000 C.3     1  UNL1       -0.0308
      3 C           2.8660    0.5000    0.0000 C.2     1  UNL1       -0.0723
      4 C           2.8660   -1.5000    0.0000 C.2     1  UNL1       -0.0837
      5 C           3.7320   -0.0000    0.0000 C.2     1  UNL1       -0.0631
      6 C           3.7320   -1.0000    0.0000 C.2     1  UNL1       -0.0657
      7 C           2.8660    1.5000    0.0000 C.3     1  UNL1       -0.0435
      8 H           1.7880    0.5826    0.0000 H       1  UNL1        0.0313
      9 H           1.3894   -0.1077    0.0000 H       1  UNL1        0.0313
     10 H           1.3894   -0.8923    0.0000 H       1  UNL1        0.0310
     11 H           1.7880   -1.5826    0.0000 H       1  UNL1        0.0310
     12 H           2.8660   -2.1200    0.0000 H       1  UNL1        0.0572
     13 H           4.2690    0.3100    0.0000 H       1  UNL1        0.0617
     14 H           3.4860    1.5000    0.0000 H       1  UNL1        0.0274
     15 H           2.8660    2.1200    0.0000 H       1  UNL1        0.0274
     16 H           2.2460    1.5000    0.0000 H       1  UNL1        0.0274
     17 H           4.2690   -1.3100    0.0000 H       1  UNL1        0.0614
@<TRIPOS>BOND
     1     1     2    1
     2     1     3    1
     3     1     8    1
     4     1     9    1
     5     2     4    1
     6     2    10    1
     7     2    11    1
     8     3     5    2
     9     3     7    1
    10     4     6    2
    11     4    12    1
    12     5     6    1
    13     5    13    1
    14     6    17    1
    15     7    14    1
    16     7    15    1
    17     7    16    1
