@<TRIPOS>MOLECULE
IMPHY007761
 74 78 0 0 0
SMALL
GASTEIGER

@<TRIPOS>ATOM
      1 O           7.2641    0.4050    0.0000 O.3     1  UNL1       -0.3313
      2 O           6.3981   -2.0950    0.0000 O.3     1  UNL1       -0.3461
      3 O           4.6660   -2.0950    0.0000 O.3     1  UNL1       -0.3431
      4 O           8.1301   -2.0950    0.0000 O.3     1  UNL1       -0.3865
      5 O           9.8622   -1.0950    0.0000 O.3     1  UNL1       -0.3864
      6 O           8.1301    1.9050    0.0000 O.3     1  UNL1       -0.4532
      7 O           9.8622    0.9050    0.0000 O.3     1  UNL1       -0.3829
      8 O           6.3981   -4.0950    0.0000 O.3     1  UNL1       -0.3841
      9 O           4.6660   -5.0950    0.0000 O.3     1  UNL1       -0.3864
     10 O           2.9340   -4.0950    0.0000 O.3     1  UNL1       -0.3866
     11 O           6.3981    3.9050    0.0000 O.2     1  UNL1       -0.4507
     12 O           6.3981    0.9050    0.0000 O.2     1  UNL1       -0.2830
     13 O           4.6497    0.8704    0.0000 O.3     1  UNL1       -0.5058
     14 O           2.8680    3.9292    0.0000 O.3     1  UNL1       -0.4949
     15 C           7.2641   -0.5950    0.0000 C.3     1  UNL1        0.1144
     16 C           8.1301   -1.0950    0.0000 C.3     1  UNL1        0.1120
     17 C           8.9962   -0.5950    0.0000 C.3     1  UNL1        0.1152
     18 C           8.9962    0.4050    0.0000 C.3     1  UNL1        0.1454
     19 C           5.5320   -3.5950    0.0000 C.3     1  UNL1        0.1341
     20 C           5.5320   -2.5950    0.0000 C.3     1  UNL1        0.1879
     21 C           4.6660   -4.0950    0.0000 C.3     1  UNL1        0.1140
     22 C           3.8000   -3.5950    0.0000 C.3     1  UNL1        0.1095
     23 C           8.1301    0.9050    0.0000 C.3     1  UNL1        0.2311
     24 C           6.3981   -1.0950    0.0000 C.3     1  UNL1        0.0796
     25 C           3.8000   -2.5950    0.0000 C.3     1  UNL1        0.0873
     26 C           2.9340   -2.0950    0.0000 C.3     1  UNL1       -0.0361
     27 C           7.2641    2.4050    0.0000 C.ar    1  UNL1        0.2138
     28 C           7.2641    3.4050    0.0000 C.ar    1  UNL1        0.1809
     29 C           6.3981    1.9050    0.0000 C.ar    1  UNL1        0.2382
     30 C           5.5320    2.4050    0.0000 C.ar    1  UNL1        0.1092
     31 C           5.5320    3.4050    0.0000 C.ar    1  UNL1        0.1465
     32 C           8.1301    3.9050    0.0000 C.ar    1  UNL1        0.0211
     33 C           4.6381    1.8703    0.0000 C.ar    1  UNL1        0.1348
     34 C           4.6381    3.9397    0.0000 C.ar    1  UNL1        0.0233
     35 C           8.1301    4.9050    0.0000 C.ar    1  UNL1       -0.0510
     36 C           8.9962    3.4050    0.0000 C.ar    1  UNL1       -0.0510
     37 C           3.7320    2.3842    0.0000 C.ar    1  UNL1        0.0225
     38 C           3.7320    3.4258    0.0000 C.ar    1  UNL1        0.1271
     39 C           8.9962    5.4050    0.0000 C.ar    1  UNL1       -0.0611
     40 C           9.8622    3.9050    0.0000 C.ar    1  UNL1       -0.0611
     41 C           9.8622    4.9050    0.0000 C.ar    1  UNL1       -0.0617
     42 C           2.0000    3.4325    0.0000 C.3     1  UNL1        0.0788
     43 H           6.7272   -0.2850    0.0000 H       1  UNL1        0.0647
     44 H           8.6671   -1.4050    0.0000 H       1  UNL1        0.0647
     45 H           9.5331   -0.2850    0.0000 H       1  UNL1        0.0648
     46 H           8.9962    1.0250    0.0000 H       1  UNL1        0.0683
     47 H           6.0690   -3.2850    0.0000 H       1  UNL1        0.0671
     48 H           5.5320   -1.9750    0.0000 H       1  UNL1        0.0937
     49 H           5.2030   -4.4050    0.0000 H       1  UNL1        0.0648
     50 H           3.2631   -3.2850    0.0000 H       1  UNL1        0.0646
     51 H           7.5932    1.2150    0.0000 H       1  UNL1        0.1084
     52 H           6.1860   -0.5124    0.0000 H       1  UNL1        0.0587
     53 H           5.7875   -1.2027    0.0000 H       1  UNL1        0.0587
     54 H           3.8000   -1.9750    0.0000 H       1  UNL1        0.0621
     55 H           3.2440   -1.5581    0.0000 H       1  UNL1        0.0255
     56 H           2.3970   -1.7850    0.0000 H       1  UNL1        0.0255
     57 H           2.6240   -2.6319    0.0000 H       1  UNL1        0.0255
     58 H           7.5932   -2.4050    0.0000 H       1  UNL1        0.2100
     59 H           9.8622   -1.7150    0.0000 H       1  UNL1        0.2100
     60 H          10.3991    0.5950    0.0000 H       1  UNL1        0.2102
     61 H           6.9350   -3.7850    0.0000 H       1  UNL1        0.2101
     62 H           4.1291   -5.4050    0.0000 H       1  UNL1        0.2100
     63 H           2.3970   -3.7850    0.0000 H       1  UNL1        0.2100
     64 H           4.6453    4.5596    0.0000 H       1  UNL1        0.0691
     65 H           7.5932    5.2150    0.0000 H       1  UNL1        0.0625
     66 H           8.9962    2.7850    0.0000 H       1  UNL1        0.0625
     67 H           3.1963    2.0721    0.0000 H       1  UNL1        0.0691
     68 H           8.9962    6.0250    0.0000 H       1  UNL1        0.0618
     69 H          10.3991    3.5950    0.0000 H       1  UNL1        0.0618
     70 H          10.3991    5.2150    0.0000 H       1  UNL1        0.0618
     71 H           4.1164    0.5542    0.0000 H       1  UNL1        0.2922
     72 H           1.6921    3.9706    0.0000 H       1  UNL1        0.0660
     73 H           1.4619    3.1246    0.0000 H       1  UNL1        0.0660
     74 H           2.3079    2.8944    0.0000 H       1  UNL1        0.0660
@<TRIPOS>BOND
     1     1    15    1
     2     1    23    1
     3    20     2    1
     4     2    24    1
     5     3    20    1
     6     3    25    1
     7    16     4    1
     8     4    58    1
     9     5    17    1
    10     5    59    1
    11    23     6    1
    12     6    27    1
    13     7    18    1
    14     7    60    1
    15     8    19    1
    16     8    61    1
    17    21     9    1
    18     9    62    1
    19    22    10    1
    20    10    63    1
    21    11    28   ar
    22    11    31   ar
    23    12    29    2
    24    13    33    1
    25    13    71    1
    26    14    38    1
    27    14    42    1
    28    15    16    1
    29    15    24    1
    30    15    43    1
    31    16    17    1
    32    16    44    1
    33    17    18    1
    34    17    45    1
    35    18    23    1
    36    18    46    1
    37    19    20    1
    38    19    21    1
    39    19    47    1
    40    20    48    1
    41    21    22    1
    42    21    49    1
    43    22    25    1
    44    22    50    1
    45    23    51    1
    46    24    52    1
    47    24    53    1
    48    25    26    1
    49    25    54    1
    50    26    55    1
    51    26    56    1
    52    26    57    1
    53    27    28   ar
    54    27    29   ar
    55    28    32    1
    56    29    30   ar
    57    30    31   ar
    58    30    33   ar
    59    31    34   ar
    60    32    35   ar
    61    32    36   ar
    62    33    37   ar
    63    34    38   ar
    64    34    64    1
    65    35    39   ar
    66    35    65    1
    67    36    40   ar
    68    36    66    1
    69    37    38   ar
    70    37    67    1
    71    39    41   ar
    72    39    68    1
    73    40    41   ar
    74    40    69    1
    75    41    70    1
    76    42    72    1
    77    42    73    1
    78    42    74    1
