@<TRIPOS>MOLECULE
IMPHY006238
 72 76 0 0 0
SMALL
GASTEIGER

@<TRIPOS>ATOM
      1 O           7.2098   -1.2941    0.0000 O.3     1  UNL1       -0.4580
      2 O           5.8901   -2.9169    0.0000 O.3     1  UNL1       -0.3878
      3 O           9.1288    0.4768    0.0000 O.3     1  UNL1       -0.4270
      4 O           2.0000   -3.2588    0.0000 O.2     1  UNL1       -0.2921
      5 O          10.8718    0.8473    0.0000 O.2     1  UNL1       -0.2449
      6 O           6.9419   -3.0053    0.0000 O.2     1  UNL1       -0.2512
      7 O          11.6355    3.6647    0.0000 O.3     1  UNL1       -0.3638
      8 O          11.5448    1.9350    0.0000 O.3     1  UNL1       -0.3638
      9 C           5.8272   -0.1287    0.0000 C.3     1  UNL1        0.0359
     10 C           4.8000    0.0442    0.0000 C.3     1  UNL1       -0.0191
     11 C           4.0962   -0.7815    0.0000 C.3     1  UNL1       -0.0038
     12 C           6.1424    1.6191    0.0000 C.3     1  UNL1        0.0004
     13 C           4.4673   -1.8011    0.0000 C.3     1  UNL1        0.0098
     14 C           6.4844    0.6794    0.0000 C.2     1  UNL1       -0.0152
     15 C           6.2218   -1.1395    0.0000 C.3     1  UNL1        0.1384
     16 C           4.4438    1.0230    0.0000 C.3     1  UNL1       -0.0477
     17 C           5.5373   -1.9813    0.0000 C.3     1  UNL1        0.0974
     18 C           5.1195    1.8158    0.0000 C.3     1  UNL1       -0.0429
     19 C           8.1159    2.2374    0.0000 C.3     1  UNL1        0.0068
     20 C           3.7543   -2.6780    0.0000 C.3     1  UNL1        0.0334
     21 C           6.8133   -0.2948    0.0000 C.3     1  UNL1       -0.0519
     22 C           7.8571    1.2714    0.0000 C.2     1  UNL1        0.1102
     23 C           7.3793    3.2200    0.0000 C.3     1  UNL1        0.0135
     24 C           3.7542    0.1582    0.0000 C.3     1  UNL1       -0.0554
     25 C           2.9864   -0.5682    0.0000 C.2     1  UNL1       -0.0741
     26 C           5.8003    2.5588    0.0000 C.3     1  UNL1       -0.0551
     27 C           9.5476    2.0397    0.0000 C.2     1  UNL1        0.0421
     28 C           2.6398   -2.4903    0.0000 C.2     1  UNL1        0.1618
     29 C           2.2533   -1.4283    0.0000 C.2     1  UNL1       -0.0220
     30 C           3.5921   -3.6647    0.0000 C.3     1  UNL1       -0.0524
     31 C           4.5277   -3.3118    0.0000 C.3     1  UNL1       -0.0524
     32 C           9.9059    1.1061    0.0000 C.2     1  UNL1        0.3403
     33 C          10.0922    2.8784    0.0000 C.2     1  UNL1       -0.0189
     34 C           7.5698   -2.2270    0.0000 C.2     1  UNL1        0.3043
     35 C          11.0908    2.8260    0.0000 C.3     1  UNL1        0.1738
     36 C           8.5578   -2.3817    0.0000 C.3     1  UNL1        0.0332
     37 H           5.3439    0.6975    0.0000 H       1  UNL1        0.0319
     38 H           4.7673   -2.5964    0.0000 H       1  UNL1        0.0345
     39 H           6.6102   -0.6562    0.0000 H       1  UNL1        0.0769
     40 H           4.0477    1.5000    0.0000 H       1  UNL1        0.0269
     41 H           3.9060    0.7144    0.0000 H       1  UNL1        0.0269
     42 H           5.1433   -2.4600    0.0000 H       1  UNL1        0.0634
     43 H           5.3390    2.3956    0.0000 H       1  UNL1        0.0274
     44 H           4.5857    2.1313    0.0000 H       1  UNL1        0.0274
     45 H           8.3359    3.0584    0.0000 H       1  UNL1        0.0363
     46 H           6.7104   -0.9062    0.0000 H       1  UNL1        0.0239
     47 H           7.4247   -0.3978    0.0000 H       1  UNL1        0.0239
     48 H           6.9163    0.3166    0.0000 H       1  UNL1        0.0239
     49 H           7.6971    3.7523    0.0000 H       1  UNL1        0.0350
     50 H           6.7662    3.3119    0.0000 H       1  UNL1        0.0350
     51 H           4.3368    0.3702    0.0000 H       1  UNL1        0.0238
     52 H           3.5422    0.7408    0.0000 H       1  UNL1        0.0238
     53 H           3.1716   -0.0539    0.0000 H       1  UNL1        0.0238
     54 H           2.7811    0.0169    0.0000 H       1  UNL1        0.0579
     55 H           6.3830    2.7708    0.0000 H       1  UNL1        0.0238
     56 H           5.5883    3.1414    0.0000 H       1  UNL1        0.0238
     57 H           5.2177    2.3468    0.0000 H       1  UNL1        0.0238
     58 H           1.6431   -1.3183    0.0000 H       1  UNL1        0.0649
     59 H           2.9803   -3.5641    0.0000 H       1  UNL1        0.0239
     60 H           3.4915   -4.2765    0.0000 H       1  UNL1        0.0239
     61 H           4.2038   -3.7653    0.0000 H       1  UNL1        0.0239
     62 H           4.1347   -3.7914    0.0000 H       1  UNL1        0.0239
     63 H           5.0072   -3.7048    0.0000 H       1  UNL1        0.0239
     64 H           4.9207   -2.8323    0.0000 H       1  UNL1        0.0239
     65 H           5.4971   -3.3965    0.0000 H       1  UNL1        0.2100
     66 H           9.8107    3.4308    0.0000 H       1  UNL1        0.0627
     67 H          11.7100    2.7936    0.0000 H       1  UNL1        0.0954
     68 H           8.4619   -2.9942    0.0000 H       1  UNL1        0.0342
     69 H           9.1703   -2.4775    0.0000 H       1  UNL1        0.0342
     70 H           8.6537   -1.7691    0.0000 H       1  UNL1        0.0342
     71 H          12.2546    3.6322    0.0000 H       1  UNL1        0.2128
     72 H          12.1640    1.9026    0.0000 H       1  UNL1        0.2128
@<TRIPOS>BOND
     1    15     1    1
     2     1    34    1
     3    17     2    1
     4     2    65    1
     5     3    22    1
     6     3    32    1
     7     4    28    2
     8     5    32    2
     9     6    34    2
    10     7    35    1
    11     7    71    1
    12     8    35    1
    13     8    72    1
    14     9    10    1
    15     9    14    1
    16     9    15    1
    17     9    21    1
    18    10    11    1
    19    10    16    1
    20    10    37    1
    21    11    13    1
    22    11    24    1
    23    11    25    1
    24    12    14    1
    25    12    18    1
    26    12    19    1
    27    12    26    1
    28    13    17    1
    29    13    20    1
    30    13    38    1
    31    14    22    2
    32    15    17    1
    33    15    39    1
    34    16    18    1
    35    16    40    1
    36    16    41    1
    37    17    42    1
    38    18    43    1
    39    18    44    1
    40    19    23    1
    41    19    27    1
    42    19    45    1
    43    20    28    1
    44    20    30    1
    45    20    31    1
    46    21    46    1
    47    21    47    1
    48    21    48    1
    49    22    23    1
    50    23    49    1
    51    23    50    1
    52    24    51    1
    53    24    52    1
    54    24    53    1
    55    25    29    2
    56    25    54    1
    57    26    55    1
    58    26    56    1
    59    26    57    1
    60    27    32    1
    61    27    33    2
    62    28    29    1
    63    29    58    1
    64    30    59    1
    65    30    60    1
    66    30    61    1
    67    31    62    1
    68    31    63    1
    69    31    64    1
    70    33    35    1
    71    33    66    1
    72    34    36    1
    73    35    67    1
    74    36    68    1
    75    36    69    1
    76    36    70    1
