@<TRIPOS>MOLECULE
IMPHY012515
 72 75 0 0 0
SMALL
GASTEIGER

@<TRIPOS>ATOM
      1 O           2.5357   -3.6598    0.0000 O.3     1  UNL1       -0.3915
      2 C           7.9288   -0.6074    0.0000 C.3     1  UNL1       -0.0225
      3 C           7.9288   -1.6074    0.0000 C.3     1  UNL1       -0.0136
      4 C           8.8750   -0.3027    0.0000 C.3     1  UNL1       -0.0325
      5 C           6.1968   -1.6074    0.0000 C.3     1  UNL1       -0.0102
      6 C           7.0628   -0.1074    0.0000 C.3     1  UNL1       -0.0463
      7 C           8.8750   -1.9122    0.0000 C.3     1  UNL1       -0.0457
      8 C           7.0628   -2.1074    0.0000 C.2     1  UNL1       -0.0620
      9 C           9.4586   -1.1074    0.0000 C.3     1  UNL1       -0.0489
     10 C           5.2868   -2.1143    0.0000 C.3     1  UNL1       -0.0041
     11 C           6.1968   -0.6074    0.0000 C.3     1  UNL1       -0.0452
     12 C           9.1857    0.6478    0.0000 C.3     1  UNL1       -0.0405
     13 C           7.9288    0.3926    0.0000 C.3     1  UNL1       -0.0588
     14 C           5.2787   -3.1559    0.0000 C.2     1  UNL1       -0.0607
     15 C           4.3599   -1.5502    0.0000 C.3     1  UNL1       -0.0410
     16 C           7.0789   -3.1489    0.0000 C.2     1  UNL1       -0.0620
     17 C           5.2945   -1.1143    0.0000 C.3     1  UNL1       -0.0553
     18 C          10.1642    0.8540    0.0000 C.3     1  UNL1       -0.0502
     19 C           6.1808   -3.6767    0.0000 C.2     1  UNL1       -0.0619
     20 C           4.3433   -3.7056    0.0000 C.3     1  UNL1       -0.0048
     21 C           3.4120   -2.0781    0.0000 C.3     1  UNL1       -0.0258
     22 C           8.5179    1.3921    0.0000 C.3     1  UNL1       -0.0621
     23 C           3.4037   -3.1631    0.0000 C.3     1  UNL1        0.0590
     24 C          10.4749    1.8046    0.0000 C.3     1  UNL1       -0.0526
     25 C          11.4534    2.0108    0.0000 C.3     1  UNL1       -0.0507
     26 C          11.7640    2.9613    0.0000 C.3     1  UNL1       -0.0467
     27 C          12.7425    3.1675    0.0000 C.3     1  UNL1       -0.0627
     28 C          11.0962    3.7056    0.0000 C.3     1  UNL1       -0.0627
     29 H           8.0188   -2.4527    0.0000 H       1  UNL1        0.0351
     30 H           9.7148   -0.1708    0.0000 H       1  UNL1        0.0309
     31 H           6.9329   -1.1824    0.0000 H       1  UNL1        0.0354
     32 H           7.4613    0.3675    0.0000 H       1  UNL1        0.0271
     33 H           6.6643    0.3675    0.0000 H       1  UNL1        0.0271
     34 H           8.6240   -2.4791    0.0000 H       1  UNL1        0.0271
     35 H           9.4124   -2.2214    0.0000 H       1  UNL1        0.0271
     36 H           9.9195   -1.5222    0.0000 H       1  UNL1        0.0268
     37 H           9.9195   -0.6927    0.0000 H       1  UNL1        0.0268
     38 H           5.9847   -0.0248    0.0000 H       1  UNL1        0.0271
     39 H           5.5862   -0.7151    0.0000 H       1  UNL1        0.0271
     40 H           9.3783    1.2371    0.0000 H       1  UNL1        0.0301
     41 H           8.5488    0.3926    0.0000 H       1  UNL1        0.0235
     42 H           7.9288    1.0126    0.0000 H       1  UNL1        0.0235
     43 H           7.3088    0.3926    0.0000 H       1  UNL1        0.0235
     44 H           4.7681   -1.0835    0.0000 H       1  UNL1        0.0275
     45 H           3.9700   -1.0682    0.0000 H       1  UNL1        0.0275
     46 H           7.6193   -3.4527    0.0000 H       1  UNL1        0.0617
     47 H           5.9145   -1.1191    0.0000 H       1  UNL1        0.0238
     48 H           5.2993   -0.4943    0.0000 H       1  UNL1        0.0238
     49 H           4.6745   -1.1095    0.0000 H       1  UNL1        0.0238
     50 H          10.1848    0.2344    0.0000 H       1  UNL1        0.0268
     51 H          10.7780    0.7667    0.0000 H       1  UNL1        0.0268
     52 H           6.1832   -4.2967    0.0000 H       1  UNL1        0.0617
     53 H           3.9460   -4.1816    0.0000 H       1  UNL1        0.0335
     54 H           4.7443   -4.1785    0.0000 H       1  UNL1        0.0335
     55 H           3.2075   -1.4929    0.0000 H       1  UNL1        0.0290
     56 H           2.8004   -2.1795    0.0000 H       1  UNL1        0.0290
     57 H           8.9793    1.8062    0.0000 H       1  UNL1        0.0233
     58 H           8.1038    1.8536    0.0000 H       1  UNL1        0.0233
     59 H           8.0564    0.9781    0.0000 H       1  UNL1        0.0233
     60 H           3.4025   -3.7831    0.0000 H       1  UNL1        0.0596
     61 H          10.4543    2.4242    0.0000 H       1  UNL1        0.0265
     62 H           9.8611    1.8919    0.0000 H       1  UNL1        0.0265
     63 H          11.4739    1.3911    0.0000 H       1  UNL1        0.0268
     64 H          12.0672    1.9234    0.0000 H       1  UNL1        0.0268
     65 H           2.0000   -3.3477    0.0000 H       1  UNL1        0.2098
     66 H          12.1781    2.4998    0.0000 H       1  UNL1        0.0295
     67 H          12.8704    2.5608    0.0000 H       1  UNL1        0.0232
     68 H          13.3492    3.2954    0.0000 H       1  UNL1        0.0232
     69 H          12.6147    3.7742    0.0000 H       1  UNL1        0.0232
     70 H          11.5577    4.1197    0.0000 H       1  UNL1        0.0232
     71 H          10.6821    4.1671    0.0000 H       1  UNL1        0.0232
     72 H          10.6347    3.2915    0.0000 H       1  UNL1        0.0232
@<TRIPOS>BOND
     1    23     1    1
     2     1    65    1
     3     2     3    1
     4     2     4    1
     5     2     6    1
     6     2    13    1
     7     3     7    1
     8     3     8    1
     9     3    29    1
    10     4     9    1
    11     4    12    1
    12     4    30    1
    13     5     8    1
    14     5    10    1
    15     5    11    1
    16     5    31    1
    17     6    11    1
    18     6    32    1
    19     6    33    1
    20     7     9    1
    21     7    34    1
    22     7    35    1
    23     8    16    2
    24     9    36    1
    25     9    37    1
    26    10    14    1
    27    10    15    1
    28    10    17    1
    29    11    38    1
    30    11    39    1
    31    12    18    1
    32    12    22    1
    33    12    40    1
    34    13    41    1
    35    13    42    1
    36    13    43    1
    37    14    19    2
    38    14    20    1
    39    15    21    1
    40    15    44    1
    41    15    45    1
    42    16    19    1
    43    16    46    1
    44    17    47    1
    45    17    48    1
    46    17    49    1
    47    18    24    1
    48    18    50    1
    49    18    51    1
    50    19    52    1
    51    20    23    1
    52    20    53    1
    53    20    54    1
    54    21    23    1
    55    21    55    1
    56    21    56    1
    57    22    57    1
    58    22    58    1
    59    22    59    1
    60    23    60    1
    61    24    25    1
    62    24    61    1
    63    24    62    1
    64    25    26    1
    65    25    63    1
    66    25    64    1
    67    26    27    1
    68    26    28    1
    69    26    66    1
    70    27    67    1
    71    27    68    1
    72    27    69    1
    73    28    70    1
    74    28    71    1
    75    28    72    1
