@<TRIPOS>MOLECULE
IMPHY014077
 29 29 0 0 0
SMALL
GASTEIGER

@<TRIPOS>ATOM
      1 O           2.8660    0.4050    0.0000 O.3     1  UNL1       -0.4942
      2 O           3.7320    1.9050    0.0000 O.2     1  UNL1       -0.2915
      3 O           6.3301    0.4050    0.0000 O.3     1  UNL1       -0.5058
      4 O           4.5981   -2.5950    0.0000 O.3     1  UNL1       -0.5065
      5 C           5.4641    1.9050    0.0000 C.3     1  UNL1        0.0167
      6 C           4.5981    1.4050    0.0000 C.2     1  UNL1        0.1727
      7 C           4.5981    0.4050    0.0000 C.ar    1  UNL1        0.1007
      8 C           5.4641    2.9050    0.0000 C.3     1  UNL1       -0.0556
      9 C           6.3301    1.4050    0.0000 C.3     1  UNL1       -0.0556
     10 C           3.7320   -0.0950    0.0000 C.ar    1  UNL1        0.1375
     11 C           5.4641   -0.0950    0.0000 C.ar    1  UNL1        0.1343
     12 C           3.7320   -1.0950    0.0000 C.ar    1  UNL1        0.0225
     13 C           5.4641   -1.0950    0.0000 C.ar    1  UNL1        0.0222
     14 C           4.5981   -1.5950    0.0000 C.ar    1  UNL1        0.1238
     15 C           2.0000   -0.0950    0.0000 C.3     1  UNL1        0.0788
     16 H           5.4641    1.2850    0.0000 H       1  UNL1        0.0375
     17 H           6.0841    2.9050    0.0000 H       1  UNL1        0.0236
     18 H           5.4641    3.5250    0.0000 H       1  UNL1        0.0236
     19 H           4.8441    2.9050    0.0000 H       1  UNL1        0.0236
     20 H           6.0201    0.8681    0.0000 H       1  UNL1        0.0236
     21 H           6.8671    1.0950    0.0000 H       1  UNL1        0.0236
     22 H           6.6401    1.9419    0.0000 H       1  UNL1        0.0236
     23 H           3.1951   -1.4050    0.0000 H       1  UNL1        0.0691
     24 H           6.0010   -1.4050    0.0000 H       1  UNL1        0.0691
     25 H           6.8671    0.0950    0.0000 H       1  UNL1        0.2922
     26 H           1.6900    0.4419    0.0000 H       1  UNL1        0.0660
     27 H           1.4631   -0.4050    0.0000 H       1  UNL1        0.0660
     28 H           2.3100   -0.6319    0.0000 H       1  UNL1        0.0660
     29 H           5.1350   -2.9050    0.0000 H       1  UNL1        0.2921
@<TRIPOS>BOND
     1     1    10    1
     2     1    15    1
     3     2     6    2
     4     3    11    1
     5     3    25    1
     6     4    14    1
     7     4    29    1
     8     5     6    1
     9     5     8    1
    10     5     9    1
    11     5    16    1
    12     6     7    1
    13     7    10   ar
    14     7    11   ar
    15     8    17    1
    16     8    18    1
    17     8    19    1
    18     9    20    1
    19     9    21    1
    20     9    22    1
    21    10    12   ar
    22    11    13   ar
    23    12    14   ar
    24    12    23    1
    25    13    14   ar
    26    13    24    1
    27    15    26    1
    28    15    27    1
    29    15    28    1
