@<TRIPOS>MOLECULE
IMPHY004741
 47 49 0 0 0
SMALL
GASTEIGER

@<TRIPOS>ATOM
      1 O           6.3580   -1.5517    0.0000 O.3     1  UNL1       -0.4873
      2 O           4.5981   -2.5171    0.0000 O.3     1  UNL1       -0.4884
      3 O           2.8660   -1.5171    0.0000 O.3     1  UNL1       -0.4884
      4 O           9.0000   -0.9896    0.0000 O.2     1  UNL1       -0.2836
      5 O           2.8660    0.4829    0.0000 O.3     1  UNL1       -0.5032
      6 O          10.7282    0.0171    0.0000 O.2     1  UNL1       -0.4883
      7 O          10.7205    2.0171    0.0000 O.2     1  UNL1       -0.4883
      8 O           8.9846    3.0104    0.0000 O.2     1  UNL1       -0.2839
      9 C           7.2641    0.0037    0.0000 C.3     1  UNL1        0.0262
     10 C           6.3580    0.5176    0.0000 C.3     1  UNL1       -0.0139
     11 C           7.2641   -1.0379    0.0000 C.3     1  UNL1        0.0970
     12 C           5.4641   -0.0171    0.0000 C.ar    1  UNL1        0.0023
     13 C           8.1282    0.5071    0.0000 C.2     1  UNL1        0.0134
     14 C           5.4641   -1.0171    0.0000 C.ar    1  UNL1        0.1690
     15 C           4.5981    0.4829    0.0000 C.ar    1  UNL1       -0.0096
     16 C           4.5981   -1.5171    0.0000 C.ar    1  UNL1        0.2075
     17 C           8.9962    0.0104    0.0000 C.2     1  UNL1        0.2277
     18 C           8.1244    1.5071    0.0000 C.2     1  UNL1       -0.0038
     19 C           3.7320   -0.0171    0.0000 C.ar    1  UNL1        0.1627
     20 C           3.7320   -1.0171    0.0000 C.ar    1  UNL1        0.2070
     21 C           9.8602    0.5138    0.0000 C.2     1  UNL1        0.2128
     22 C           8.9884    2.0104    0.0000 C.2     1  UNL1        0.2244
     23 C           9.8564    1.5138    0.0000 C.2     1  UNL1        0.2125
     24 C           3.7320   -3.0171    0.0000 C.3     1  UNL1        0.0791
     25 C           2.0000   -1.0171    0.0000 C.3     1  UNL1        0.0791
     26 C          11.5923    0.5204    0.0000 C.3     1  UNL1        0.0791
     27 C          10.7166    3.0171    0.0000 C.3     1  UNL1        0.0791
     28 H           7.2605    0.6237    0.0000 H       1  UNL1        0.0386
     29 H           6.7517    0.9966    0.0000 H       1  UNL1        0.0321
     30 H           5.9534    0.9874    0.0000 H       1  UNL1        0.0321
     31 H           7.4732   -1.6216    0.0000 H       1  UNL1        0.0703
     32 H           7.8750   -0.9318    0.0000 H       1  UNL1        0.0703
     33 H           4.5981    1.1029    0.0000 H       1  UNL1        0.0659
     34 H           7.5862    1.8150    0.0000 H       1  UNL1        0.0661
     35 H           2.8660    1.1029    0.0000 H       1  UNL1        0.2923
     36 H           3.4220   -2.4801    0.0000 H       1  UNL1        0.0660
     37 H           3.1951   -3.3271    0.0000 H       1  UNL1        0.0660
     38 H           4.0420   -3.5540    0.0000 H       1  UNL1        0.0660
     39 H           2.3100   -0.4801    0.0000 H       1  UNL1        0.0660
     40 H           1.4631   -0.7071    0.0000 H       1  UNL1        0.0660
     41 H           1.6900   -1.5540    0.0000 H       1  UNL1        0.0660
     42 H          11.9043   -0.0153    0.0000 H       1  UNL1        0.0660
     43 H          12.1280    0.8325    0.0000 H       1  UNL1        0.0660
     44 H          11.2802    1.0562    0.0000 H       1  UNL1        0.0660
     45 H          11.3366    3.0195    0.0000 H       1  UNL1        0.0660
     46 H          10.7142    3.6371    0.0000 H       1  UNL1        0.0660
     47 H          10.0966    3.0147    0.0000 H       1  UNL1        0.0660
@<TRIPOS>BOND
     1     1    11    1
     2     1    14    1
     3     2    16    1
     4     2    24    1
     5     3    20    1
     6     3    25    1
     7     4    17    2
     8     5    19    1
     9     5    35    1
    10     6    21    1
    11     6    26    1
    12     7    23    1
    13     7    27    1
    14     8    22    2
    15     9    10    1
    16     9    11    1
    17     9    13    1
    18     9    28    1
    19    10    12    1
    20    10    29    1
    21    10    30    1
    22    11    31    1
    23    11    32    1
    24    12    14   ar
    25    12    15   ar
    26    13    17    1
    27    13    18    2
    28    14    16   ar
    29    15    19   ar
    30    15    33    1
    31    16    20   ar
    32    17    21    1
    33    18    22    1
    34    18    34    1
    35    19    20   ar
    36    21    23    2
    37    22    23    1
    38    24    36    1
    39    24    37    1
    40    24    38    1
    41    25    39    1
    42    25    40    1
    43    25    41    1
    44    26    42    1
    45    26    43    1
    46    26    44    1
    47    27    45    1
    48    27    46    1
    49    27    47    1
