@<TRIPOS>MOLECULE
IMPHY016047
 32 33 0 0 0
SMALL
GASTEIGER

@<TRIPOS>ATOM
      1 O           3.7310   -1.1421    0.0000 O.3     1  UNL1       -0.4571
      2 O           2.0000   -1.2026    0.0000 O.2     1  UNL1       -0.2511
      3 C           6.3161    0.7317    0.0000 C.3     1  UNL1       -0.0219
      4 C           4.9171    0.7229    0.0000 C.3     1  UNL1        0.0061
      5 C           5.1759    1.6888    0.0000 C.3     1  UNL1       -0.0141
      6 C           4.4393    2.6714    0.0000 C.3     1  UNL1       -0.0390
      7 C           3.6961   -0.1427    0.0000 C.3     1  UNL1        0.1248
      8 C           3.1427    1.3777    0.0000 C.2     1  UNL1       -0.0695
      9 C           7.1821    1.2317    0.0000 C.3     1  UNL1       -0.0589
     10 C           6.8161   -0.1343    0.0000 C.3     1  UNL1       -0.0589
     11 C           2.8671    0.4164    0.0000 C.2     1  UNL1       -0.0444
     12 C           2.5270    2.1657    0.0000 C.3     1  UNL1       -0.0434
     13 C           2.8830   -1.6721    0.0000 C.2     1  UNL1        0.3045
     14 C           2.9178   -2.6714    0.0000 C.3     1  UNL1        0.0333
     15 H           4.6971   -0.0981    0.0000 H       1  UNL1        0.0345
     16 H           5.3959    2.5099    0.0000 H       1  UNL1        0.0351
     17 H           4.7571    3.2038    0.0000 H       1  UNL1        0.0275
     18 H           3.8262    2.7634    0.0000 H       1  UNL1        0.0275
     19 H           3.1538   -0.4433    0.0000 H       1  UNL1        0.0782
     20 H           7.4921    0.6948    0.0000 H       1  UNL1        0.0235
     21 H           7.7190    1.5417    0.0000 H       1  UNL1        0.0235
     22 H           6.8721    1.7687    0.0000 H       1  UNL1        0.0235
     23 H           6.2791   -0.4443    0.0000 H       1  UNL1        0.0235
     24 H           7.1261   -0.6712    0.0000 H       1  UNL1        0.0235
     25 H           7.3530    0.1757    0.0000 H       1  UNL1        0.0235
     26 H           2.2844    0.2044    0.0000 H       1  UNL1        0.0608
     27 H           3.0156    2.5474    0.0000 H       1  UNL1        0.0274
     28 H           2.1453    2.6543    0.0000 H       1  UNL1        0.0274
     29 H           2.0385    1.7840    0.0000 H       1  UNL1        0.0274
     30 H           2.2982   -2.6931    0.0000 H       1  UNL1        0.0342
     31 H           2.9395   -3.2911    0.0000 H       1  UNL1        0.0342
     32 H           3.5375   -2.6498    0.0000 H       1  UNL1        0.0342
@<TRIPOS>BOND
     1     7     1    1
     2     1    13    1
     3     2    13    2
     4     3     4    1
     5     3     5    1
     6     3     9    1
     7     3    10    1
     8     4     6    1
     9     4     7    1
    10     4    15    1
    11     5     6    1
    12     5     8    1
    13     5    16    1
    14     6    17    1
    15     6    18    1
    16     7    11    1
    17     7    19    1
    18     8    11    2
    19     8    12    1
    20     9    20    1
    21     9    21    1
    22     9    22    1
    23    10    23    1
    24    10    24    1
    25    10    25    1
    26    11    26    1
    27    12    27    1
    28    12    28    1
    29    12    29    1
    30    13    14    1
    31    14    30    1
    32    14    31    1
    33    14    32    1
