@<TRIPOS>MOLECULE
IMPHY014152
 39 40 0 0 0
SMALL
GASTEIGER

@<TRIPOS>ATOM
      1 O           6.8671    5.7500    0.0000 O.3     1  UNL1       -0.5068
      2 O           4.2690    0.2500    0.0000 O.2     1  UNL1       -0.2708
      3 O           2.5369   -4.7500    0.0000 O.3     1  UNL1       -0.5033
      4 O           4.2690   -5.7500    0.0000 O.3     1  UNL1       -0.5033
      5 N           6.0010    0.2500    0.0000 N.am    1  UNL1       -0.3115
      6 C           6.8671    1.7500    0.0000 C.3     1  UNL1       -0.0120
      7 C           6.0010    1.2500    0.0000 C.3     1  UNL1        0.0159
      8 C           6.8671    2.7500    0.0000 C.ar    1  UNL1       -0.0457
      9 C           6.0010    3.2500    0.0000 C.ar    1  UNL1       -0.0551
     10 C           7.7331    3.2500    0.0000 C.ar    1  UNL1       -0.0551
     11 C           6.0010    4.2500    0.0000 C.ar    1  UNL1       -0.0199
     12 C           7.7331    4.2500    0.0000 C.ar    1  UNL1       -0.0199
     13 C           5.1350   -0.2500    0.0000 C.2     1  UNL1        0.2369
     14 C           6.8671    4.7500    0.0000 C.ar    1  UNL1        0.1169
     15 C           4.2690   -2.7500    0.0000 C.ar    1  UNL1       -0.0212
     16 C           5.1350   -1.2500    0.0000 C.2     1  UNL1        0.0007
     17 C           4.2690   -1.7500    0.0000 C.2     1  UNL1       -0.0496
     18 C           3.4030   -3.2500    0.0000 C.ar    1  UNL1       -0.0094
     19 C           5.1350   -3.2500    0.0000 C.ar    1  UNL1       -0.0509
     20 C           3.4030   -4.2500    0.0000 C.ar    1  UNL1        0.1588
     21 C           4.2690   -4.7500    0.0000 C.ar    1  UNL1        0.1582
     22 C           5.1350   -4.2500    0.0000 C.ar    1  UNL1       -0.0160
     23 H           7.0791    1.1674    0.0000 H       1  UNL1        0.0328
     24 H           7.4776    1.8577    0.0000 H       1  UNL1        0.0328
     25 H           5.7890    1.8326    0.0000 H       1  UNL1        0.0465
     26 H           5.3905    1.1423    0.0000 H       1  UNL1        0.0465
     27 H           6.5380   -0.0600    0.0000 H       1  UNL1        0.1490
     28 H           5.4641    2.9400    0.0000 H       1  UNL1        0.0621
     29 H           8.2700    2.9400    0.0000 H       1  UNL1        0.0621
     30 H           5.4641    4.5600    0.0000 H       1  UNL1        0.0654
     31 H           8.2700    4.5600    0.0000 H       1  UNL1        0.0654
     32 H           5.6720   -1.5600    0.0000 H       1  UNL1        0.0669
     33 H           3.7320   -1.4400    0.0000 H       1  UNL1        0.0625
     34 H           2.8660   -2.9400    0.0000 H       1  UNL1        0.0661
     35 H           5.6720   -2.9400    0.0000 H       1  UNL1        0.0625
     36 H           5.6720   -4.5600    0.0000 H       1  UNL1        0.0655
     37 H           7.4040    6.0600    0.0000 H       1  UNL1        0.2921
     38 H           2.0000   -4.4400    0.0000 H       1  UNL1        0.2923
     39 H           4.8059   -6.0600    0.0000 H       1  UNL1        0.2923
@<TRIPOS>BOND
     1     1    14    1
     2     1    37    1
     3     2    13    2
     4     3    20    1
     5     3    38    1
     6     4    21    1
     7     4    39    1
     8     5     7    1
     9     5    13   am
    10     5    27    1
    11     6     7    1
    12     6     8    1
    13     6    23    1
    14     6    24    1
    15     7    25    1
    16     7    26    1
    17     8     9   ar
    18     8    10   ar
    19     9    11   ar
    20     9    28    1
    21    10    12   ar
    22    10    29    1
    23    11    14   ar
    24    11    30    1
    25    12    14   ar
    26    12    31    1
    27    13    16    1
    28    15    17    1
    29    15    18   ar
    30    15    19   ar
    31    16    17    2
    32    16    32    1
    33    17    33    1
    34    18    20   ar
    35    18    34    1
    36    19    22   ar
    37    19    35    1
    38    20    21   ar
    39    21    22   ar
    40    22    36    1
