@<TRIPOS>MOLECULE
IMPHY009390
 22 21 0 0 0
SMALL
GASTEIGER

@<TRIPOS>ATOM
      1 O           4.7057   -1.4071    0.0000 O.3     1  UNL1       -0.3746
      2 O           5.0718    0.9589    0.0000 O.3     1  UNL1       -0.3777
      3 O           3.3397   -2.0411    0.0000 O.3     1  UNL1       -0.4785
      4 O           2.4737   -0.5411    0.0000 O.2     1  UNL1       -0.2476
      5 O           6.8038   -0.0411    0.0000 O.3     1  UNL1       -0.4787
      6 O           3.1133    1.9526    0.0000 O.3     1  UNL1       -0.4805
      7 O           5.9378   -1.5411    0.0000 O.2     1  UNL1       -0.2480
      8 O           2.0000    0.6258    0.0000 O.2     1  UNL1       -0.2509
      9 C           4.2057   -0.5411    0.0000 C.3     1  UNL1        0.2085
     10 C           5.0718   -0.0411    0.0000 C.3     1  UNL1        0.1913
     11 C           3.7057    0.3250    0.0000 C.3     1  UNL1        0.0870
     12 C           3.3397   -1.0411    0.0000 C.2     1  UNL1        0.3405
     13 C           5.9378   -0.5411    0.0000 C.2     1  UNL1        0.3371
     14 C           2.9398    0.9678    0.0000 C.2     1  UNL1        0.3081
     15 H           4.3356    0.3839    0.0000 H       1  UNL1        0.0746
     16 H           4.3215    0.3969    0.0000 H       1  UNL1        0.0413
     17 H           3.2308   -0.0736    0.0000 H       1  UNL1        0.0413
     18 H           4.3957   -1.9440    0.0000 H       1  UNL1        0.2110
     19 H           5.6087    1.2689    0.0000 H       1  UNL1        0.2106
     20 H           2.8028   -2.3511    0.0000 H       1  UNL1        0.2951
     21 H           7.3407   -0.3511    0.0000 H       1  UNL1        0.2951
     22 H           2.6384    2.3511    0.0000 H       1  UNL1        0.2951
@<TRIPOS>BOND
     1     1     9    1
     2     1    18    1
     3     2    10    1
     4     2    19    1
     5     3    12    1
     6     3    20    1
     7     4    12    2
     8     5    13    1
     9     5    21    1
    10     6    14    1
    11     6    22    1
    12     7    13    2
    13     8    14    2
    14     9    10    1
    15     9    11    1
    16     9    12    1
    17    10    13    1
    18    10    15    1
    19    11    14    1
    20    11    16    1
    21    11    17    1
