@<TRIPOS>MOLECULE
IMPHY017481
 25 24 0 0 0
SMALL
GASTEIGER

@<TRIPOS>ATOM
      1 O           2.0000   -0.5000    0.0000 O.2     1  UNL1       -0.3010
      2 C           4.5981    0.0000    0.0000 C.3     1  UNL1       -0.0285
      3 C           5.4641    0.5000    0.0000 C.3     1  UNL1       -0.0477
      4 C           3.7320   -0.5000    0.0000 C.3     1  UNL1        0.0079
      5 C           4.0981    0.8660    0.0000 C.3     1  UNL1       -0.0594
      6 C           5.0981   -0.8660    0.0000 C.3     1  UNL1       -0.0594
      7 C           6.3301    0.0000    0.0000 C.3     1  UNL1       -0.0554
      8 C           7.1962    0.5000    0.0000 C.3     1  UNL1       -0.0653
      9 C           2.8660   -0.0000    0.0000 C.2     1  UNL1        0.1208
     10 H           5.8626    0.9749    0.0000 H       1  UNL1        0.0270
     11 H           5.0656    0.9749    0.0000 H       1  UNL1        0.0270
     12 H           3.3335   -0.9749    0.0000 H       1  UNL1        0.0344
     13 H           4.1306   -0.9749    0.0000 H       1  UNL1        0.0344
     14 H           4.6350    1.1760    0.0000 H       1  UNL1        0.0235
     15 H           3.7881    1.4030    0.0000 H       1  UNL1        0.0235
     16 H           3.5611    0.5560    0.0000 H       1  UNL1        0.0235
     17 H           4.5611   -1.1760    0.0000 H       1  UNL1        0.0235
     18 H           5.4081   -1.4030    0.0000 H       1  UNL1        0.0235
     19 H           5.6350   -0.5560    0.0000 H       1  UNL1        0.0235
     20 H           5.9316   -0.4749    0.0000 H       1  UNL1        0.0263
     21 H           6.7287   -0.4749    0.0000 H       1  UNL1        0.0263
     22 H           7.5062   -0.0369    0.0000 H       1  UNL1        0.0230
     23 H           7.7331    0.8100    0.0000 H       1  UNL1        0.0230
     24 H           6.8862    1.0369    0.0000 H       1  UNL1        0.0230
     25 H           2.8660    0.6200    0.0000 H       1  UNL1        0.1026
@<TRIPOS>BOND
     1     1     9    2
     2     2     3    1
     3     2     4    1
     4     2     5    1
     5     2     6    1
     6     3     7    1
     7     3    10    1
     8     3    11    1
     9     4     9    1
    10     4    12    1
    11     4    13    1
    12     5    14    1
    13     5    15    1
    14     5    16    1
    15     6    17    1
    16     6    18    1
    17     6    19    1
    18     7     8    1
    19     7    20    1
    20     7    21    1
    21     8    22    1
    22     8    23    1
    23     8    24    1
    24     9    25    1
