@<TRIPOS>MOLECULE
IMPHY010229
 37 39 0 0 0
SMALL
GASTEIGER

@<TRIPOS>ATOM
      1 O           6.0682   -0.2704    0.0000 O.3     1  UNL1       -0.4800
      2 O           7.8003    1.7296    0.0000 O.3     1  UNL1       -0.3798
      3 O           6.0682    2.7296    0.0000 O.2     1  UNL1       -0.2889
      4 O           4.3198    2.7642    0.0000 O.3     1  UNL1       -0.5058
      5 O           2.5381   -0.2945    0.0000 O.3     1  UNL1       -0.5063
      6 O           8.6663   -2.7704    0.0000 O.3     1  UNL1       -0.5033
      7 O          10.3984   -1.7704    0.0000 O.3     1  UNL1       -0.5033
      8 C           6.9343    0.2296    0.0000 C.3     1  UNL1        0.1582
      9 C           6.9343    1.2296    0.0000 C.3     1  UNL1        0.1585
     10 C           5.2022    1.2296    0.0000 C.ar    1  UNL1        0.1036
     11 C           5.2022    0.2296    0.0000 C.ar    1  UNL1        0.1420
     12 C           6.0682    1.7296    0.0000 C.2     1  UNL1        0.2024
     13 C           7.8003   -0.2704    0.0000 C.ar    1  UNL1       -0.0007
     14 C           4.3083   -0.3051    0.0000 C.ar    1  UNL1        0.0335
     15 C           4.3083    1.7643    0.0000 C.ar    1  UNL1        0.1344
     16 C           7.8003   -1.2704    0.0000 C.ar    1  UNL1       -0.0098
     17 C           3.4022    0.2088    0.0000 C.ar    1  UNL1        0.1267
     18 C           8.6663    0.2296    0.0000 C.ar    1  UNL1       -0.0513
     19 C           3.4022    1.2504    0.0000 C.ar    1  UNL1        0.0225
     20 C           4.3198   -1.3050    0.0000 C.3     1  UNL1       -0.0327
     21 C           8.6663   -1.7704    0.0000 C.ar    1  UNL1        0.1586
     22 C           9.5323   -0.2704    0.0000 C.ar    1  UNL1       -0.0162
     23 C           9.5323   -1.2704    0.0000 C.ar    1  UNL1        0.1582
     24 H           6.9343   -0.3904    0.0000 H       1  UNL1        0.0815
     25 H           6.9343    1.8496    0.0000 H       1  UNL1        0.0718
     26 H           7.2634   -1.5804    0.0000 H       1  UNL1        0.0659
     27 H           8.6663    0.8496    0.0000 H       1  UNL1        0.0623
     28 H           2.8665    1.5625    0.0000 H       1  UNL1        0.0691
     29 H           7.8003    2.3496    0.0000 H       1  UNL1        0.2105
     30 H           3.6999   -1.3122    0.0000 H       1  UNL1        0.0280
     31 H           4.3270   -1.9249    0.0000 H       1  UNL1        0.0280
     32 H           4.9398   -1.2978    0.0000 H       1  UNL1        0.0280
     33 H          10.0693    0.0396    0.0000 H       1  UNL1        0.0655
     34 H           3.7865    3.0804    0.0000 H       1  UNL1        0.2922
     35 H           2.0000    0.0134    0.0000 H       1  UNL1        0.2921
     36 H           9.2033   -3.0804    0.0000 H       1  UNL1        0.2923
     37 H          10.9353   -1.4604    0.0000 H       1  UNL1        0.2923
@<TRIPOS>BOND
     1     1     8    1
     2     1    11    1
     3     9     2    1
     4     2    29    1
     5     3    12    2
     6     4    15    1
     7     4    34    1
     8     5    17    1
     9     5    35    1
    10     6    21    1
    11     6    36    1
    12     7    23    1
    13     7    37    1
    14     8     9    1
    15     8    13    1
    16     8    24    1
    17     9    12    1
    18     9    25    1
    19    10    11   ar
    20    10    12    1
    21    10    15   ar
    22    11    14   ar
    23    13    16   ar
    24    13    18   ar
    25    14    17   ar
    26    14    20    1
    27    15    19   ar
    28    16    21   ar
    29    16    26    1
    30    17    19   ar
    31    18    22   ar
    32    18    27    1
    33    19    28    1
    34    20    30    1
    35    20    31    1
    36    20    32    1
    37    21    23   ar
    38    22    23   ar
    39    22    33    1
