@<TRIPOS>MOLECULE
IMPHY010833
 104 110 0 0 0
SMALL
GASTEIGER

@<TRIPOS>ATOM
      1 O          10.4909    5.4102    0.0000 O.3     1  UNL1       -0.3877
      2 O           7.8152    3.8930    0.0000 O.3     1  UNL1       -0.3875
      3 O           6.8671    1.2798    0.0000 O.3     1  UNL1       -0.3479
      4 O          10.4590    1.3824    0.0000 O.2     1  UNL1       -0.3003
      5 O          15.5459    5.0235    0.0000 O.3     1  UNL1       -0.4571
      6 O           6.0010   -0.2202    0.0000 O.3     1  UNL1       -0.3456
      7 O          16.0035    3.3012    0.0000 O.2     1  UNL1       -0.2456
      8 O           8.5991   -1.7202    0.0000 O.3     1  UNL1       -0.3770
      9 O           6.8671   -2.7202    0.0000 O.3     1  UNL1       -0.3403
     10 O           5.1350   -2.7202    0.0000 O.3     1  UNL1       -0.3405
     11 O           6.8671   -4.7202    0.0000 O.3     1  UNL1       -0.3841
     12 O           5.1350   -5.7202    0.0000 O.3     1  UNL1       -0.3864
     13 O           3.4030   -4.7202    0.0000 O.3     1  UNL1       -0.3865
     14 O           2.5369   -3.2202    0.0000 O.3     1  UNL1       -0.3924
     15 C          11.3550    4.9069    0.0000 C.3     1  UNL1        0.0751
     16 C          10.4870    4.4102    0.0000 C.3     1  UNL1       -0.0077
     17 C          12.2191    4.4036    0.0000 C.3     1  UNL1        0.0036
     18 C          10.4832    3.4102    0.0000 C.3     1  UNL1       -0.0208
     19 C           9.5872    2.8790    0.0000 C.3     1  UNL1        0.0579
     20 C           8.6831    3.3964    0.0000 C.3     1  UNL1        0.0807
     21 C          12.9587    5.0678    0.0000 C.3     1  UNL1       -0.0081
     22 C          12.2152    3.4036    0.0000 C.3     1  UNL1       -0.0442
     23 C          11.3473    2.9069    0.0000 C.3     1  UNL1       -0.0483
     24 C          11.5679    5.8779    0.0000 C.3     1  UNL1       -0.0226
     25 C           9.5952    4.9483    0.0000 C.3     1  UNL1       -0.0447
     26 C           8.6871    4.4380    0.0000 C.3     1  UNL1       -0.0226
     27 C          12.5571    5.9771    0.0000 C.3     1  UNL1       -0.0432
     28 C           9.6081    1.7942    0.0000 C.3     1  UNL1       -0.0357
     29 C          13.0832    3.9002    0.0000 C.3     1  UNL1       -0.0564
     30 C           7.7373    2.8648    0.0000 C.3     1  UNL1        0.0034
     31 C           8.6748    1.2409    0.0000 C.3     1  UNL1       -0.0254
     32 C           7.7331    1.7798    0.0000 C.3     1  UNL1        0.0643
     33 C          10.4551    2.3824    0.0000 C.2     1  UNL1        0.1294
     34 C          13.9364    4.8578    0.0000 C.2     1  UNL1       -0.0222
     35 C          14.6809    5.5254    0.0000 C.3     1  UNL1        0.1147
     36 C          14.3412    3.9434    0.0000 C.2     1  UNL1        0.0252
     37 C           6.8671    0.2798    0.0000 C.3     1  UNL1        0.1624
     38 C          15.3359    4.0458    0.0000 C.2     1  UNL1        0.3323
     39 C           7.7331   -0.2202    0.0000 C.3     1  UNL1        0.0272
     40 C           7.7331   -1.2202    0.0000 C.3     1  UNL1        0.0915
     41 C           6.0010   -1.2202    0.0000 C.3     1  UNL1        0.0875
     42 C           6.8671   -1.7202    0.0000 C.3     1  UNL1        0.1138
     43 C           5.1350   -1.7202    0.0000 C.3     1  UNL1       -0.0361
     44 C           6.0010   -3.2202    0.0000 C.3     1  UNL1        0.1884
     45 C           9.4651   -1.2202    0.0000 C.3     1  UNL1        0.0369
     46 C           6.0010   -4.2202    0.0000 C.3     1  UNL1        0.1341
     47 C           5.1350   -4.7202    0.0000 C.3     1  UNL1        0.1141
     48 C           4.2690   -3.2202    0.0000 C.3     1  UNL1        0.1130
     49 C           4.2690   -4.2202    0.0000 C.3     1  UNL1        0.1119
     50 C           3.4030   -2.7202    0.0000 C.3     1  UNL1        0.0730
     51 H          11.2215    3.9824    0.0000 H       1  UNL1        0.0332
     52 H          11.2209    3.8324    0.0000 H       1  UNL1        0.0315
     53 H          13.3501    5.5486    0.0000 H       1  UNL1        0.0353
     54 H          12.4250    2.8201    0.0000 H       1  UNL1        0.0272
     55 H          12.8262    3.5089    0.0000 H       1  UNL1        0.0272
     56 H          10.9469    2.4335    0.0000 H       1  UNL1        0.0269
     57 H          11.7440    2.4304    0.0000 H       1  UNL1        0.0269
     58 H          11.5712    6.4979    0.0000 H       1  UNL1        0.0293
     59 H          10.9517    5.9463    0.0000 H       1  UNL1        0.0293
     60 H          10.0016    5.4166    0.0000 H       1  UNL1        0.0270
     61 H           9.2034    5.4289    0.0000 H       1  UNL1        0.0270
     62 H           8.4803    5.0225    0.0000 H       1  UNL1        0.0293
     63 H           8.0759    4.3342    0.0000 H       1  UNL1        0.0293
     64 H          13.1474    6.1666    0.0000 H       1  UNL1        0.0272
     65 H          12.4307    6.5841    0.0000 H       1  UNL1        0.0272
     66 H           9.8284    1.2147    0.0000 H       1  UNL1        0.0276
     67 H          10.2168    1.9121    0.0000 H       1  UNL1        0.0276
     68 H           7.5305    3.4493    0.0000 H       1  UNL1        0.0318
     69 H           7.1260    2.7610    0.0000 H       1  UNL1        0.0318
     70 H          12.7711    3.3645    0.0000 H       1  UNL1        0.0236
     71 H          13.6189    3.5882    0.0000 H       1  UNL1        0.0236
     72 H          13.3952    4.4360    0.0000 H       1  UNL1        0.0236
     73 H           8.2793    0.7634    0.0000 H       1  UNL1        0.0290
     74 H           9.0776    0.7696    0.0000 H       1  UNL1        0.0290
     75 H           7.1968    2.0908    0.0000 H       1  UNL1        0.0598
     76 H          10.4933    6.0302    0.0000 H       1  UNL1        0.2102
     77 H          10.9933    2.0744    0.0000 H       1  UNL1        0.1033
     78 H           7.8128    4.5130    0.0000 H       1  UNL1        0.2102
     79 H          15.0464    6.0262    0.0000 H       1  UNL1        0.0746
     80 H          14.2211    5.9412    0.0000 H       1  UNL1        0.0746
     81 H          14.0300    3.4071    0.0000 H       1  UNL1        0.0689
     82 H           7.4040    0.5898    0.0000 H       1  UNL1        0.0910
     83 H           8.3437   -0.3279    0.0000 H       1  UNL1        0.0340
     84 H           7.9451    0.3624    0.0000 H       1  UNL1        0.0340
     85 H           8.2700   -0.9102    0.0000 H       1  UNL1        0.0624
     86 H           5.4641   -0.9102    0.0000 H       1  UNL1        0.0621
     87 H           7.4040   -2.0302    0.0000 H       1  UNL1        0.0649
     88 H           4.8250   -1.1833    0.0000 H       1  UNL1        0.0255
     89 H           4.5981   -2.0302    0.0000 H       1  UNL1        0.0255
     90 H           5.4450   -2.2572    0.0000 H       1  UNL1        0.0255
     91 H           6.0010   -2.6002    0.0000 H       1  UNL1        0.0938
     92 H           9.7751   -1.7572    0.0000 H       1  UNL1        0.0524
     93 H          10.0021   -0.9102    0.0000 H       1  UNL1        0.0524
     94 H           9.1551   -0.6833    0.0000 H       1  UNL1        0.0524
     95 H           6.0010   -4.8402    0.0000 H       1  UNL1        0.0671
     96 H           4.5981   -5.0302    0.0000 H       1  UNL1        0.0648
     97 H           4.2690   -2.6002    0.0000 H       1  UNL1        0.0647
     98 H           4.2690   -4.8402    0.0000 H       1  UNL1        0.0647
     99 H           7.4040   -4.4102    0.0000 H       1  UNL1        0.2101
    100 H           3.8015   -2.2453    0.0000 H       1  UNL1        0.0584
    101 H           3.0044   -2.2453    0.0000 H       1  UNL1        0.0584
    102 H           5.6720   -6.0302    0.0000 H       1  UNL1        0.2100
    103 H           3.4030   -5.3402    0.0000 H       1  UNL1        0.2100
    104 H           2.0000   -2.9102    0.0000 H       1  UNL1        0.2095
@<TRIPOS>BOND
     1    15     1    1
     2     1    76    1
     3    20     2    1
     4     2    78    1
     5    32     3    1
     6    37     3    1
     7     4    33    2
     8     5    35    1
     9     5    38    1
    10     6    37    1
    11     6    41    1
    12     7    38    2
    13    40     8    1
    14     8    45    1
    15    42     9    1
    16    44     9    1
    17    10    44    1
    18    10    48    1
    19    46    11    1
    20    11    99    1
    21    47    12    1
    22    12   102    1
    23    49    13    1
    24    13   103    1
    25    14    50    1
    26    14   104    1
    27    15    16    1
    28    15    17    1
    29    15    24    1
    30    16    18    1
    31    16    25    1
    32    16    51    1
    33    17    21    1
    34    17    22    1
    35    17    29    1
    36    18    19    1
    37    18    23    1
    38    18    52    1
    39    19    20    1
    40    19    28    1
    41    19    33    1
    42    20    26    1
    43    20    30    1
    44    21    27    1
    45    21    34    1
    46    21    53    1
    47    22    23    1
    48    22    54    1
    49    22    55    1
    50    23    56    1
    51    23    57    1
    52    24    27    1
    53    24    58    1
    54    24    59    1
    55    25    26    1
    56    25    60    1
    57    25    61    1
    58    26    62    1
    59    26    63    1
    60    27    64    1
    61    27    65    1
    62    28    31    1
    63    28    66    1
    64    28    67    1
    65    29    70    1
    66    29    71    1
    67    29    72    1
    68    30    32    1
    69    30    68    1
    70    30    69    1
    71    31    32    1
    72    31    73    1
    73    31    74    1
    74    32    75    1
    75    33    77    1
    76    34    35    1
    77    34    36    2
    78    35    79    1
    79    35    80    1
    80    36    38    1
    81    36    81    1
    82    37    39    1
    83    37    82    1
    84    39    40    1
    85    39    83    1
    86    39    84    1
    87    40    42    1
    88    40    85    1
    89    41    42    1
    90    41    43    1
    91    41    86    1
    92    42    87    1
    93    43    88    1
    94    43    89    1
    95    43    90    1
    96    44    46    1
    97    44    91    1
    98    45    92    1
    99    45    93    1
   100    45    94    1
   101    46    47    1
   102    46    95    1
   103    47    49    1
   104    47    96    1
   105    48    49    1
   106    48    50    1
   107    48    97    1
   108    49    98    1
   109    50   100    1
   110    50   101    1
