@<TRIPOS>MOLECULE
IMPHY015641
 18 17 0 0 0
SMALL
GASTEIGER

@<TRIPOS>ATOM
      1 O           2.5369    0.4400    0.0000 O.3     1  UNL1       -0.4775
      2 O           3.4030   -1.0600    0.0000 O.2     1  UNL1       -0.2458
      3 C           6.8671   -0.0600    0.0000 C.3     1  UNL1       -0.0525
      4 C           6.0010    0.4400    0.0000 C.3     1  UNL1       -0.0345
      5 C           7.7331    0.4400    0.0000 C.3     1  UNL1       -0.0650
      6 C           5.1350   -0.0600    0.0000 C.2     1  UNL1       -0.0773
      7 C           4.2690    0.4400    0.0000 C.2     1  UNL1        0.0184
      8 C           3.4030   -0.0600    0.0000 C.2     1  UNL1        0.3292
      9 H           6.4685   -0.5349    0.0000 H       1  UNL1        0.0266
     10 H           7.2656   -0.5349    0.0000 H       1  UNL1        0.0266
     11 H           6.3996    0.9149    0.0000 H       1  UNL1        0.0307
     12 H           5.6025    0.9149    0.0000 H       1  UNL1        0.0307
     13 H           8.0431   -0.0969    0.0000 H       1  UNL1        0.0230
     14 H           8.2700    0.7500    0.0000 H       1  UNL1        0.0230
     15 H           7.4231    0.9769    0.0000 H       1  UNL1        0.0230
     16 H           5.1350   -0.6800    0.0000 H       1  UNL1        0.0574
     17 H           4.2690    1.0600    0.0000 H       1  UNL1        0.0686
     18 H           2.0000    0.1300    0.0000 H       1  UNL1        0.2954
@<TRIPOS>BOND
     1     1     8    1
     2     1    18    1
     3     2     8    2
     4     3     4    1
     5     3     5    1
     6     3     9    1
     7     3    10    1
     8     4     6    1
     9     4    11    1
    10     4    12    1
    11     5    13    1
    12     5    14    1
    13     5    15    1
    14     6     7    2
    15     6    16    1
    16     7     8    1
    17     7    17    1
