@<TRIPOS>MOLECULE
IMPHY000416
 56 58 0 0 0
SMALL
GASTEIGER

@<TRIPOS>ATOM
      1 O           4.5787    0.4002    0.0000 O.3     1  UNL1       -0.4592
      2 O           7.1188   -0.0886    0.0000 O.3     1  UNL1       -0.4580
      3 O           5.1666   -0.1004    0.0000 O.3     1  UNL1       -0.3853
      4 O           6.0133   -2.5210    0.0000 O.3     1  UNL1       -0.3736
      5 O           2.8660    0.4114    0.0000 O.2     1  UNL1       -0.2505
      6 O           7.6909   -2.5486    0.0000 O.3     1  UNL1       -0.3915
      7 O           7.9848   -1.5663    0.0000 O.2     1  UNL1       -0.2474
      8 N           5.4255    2.8444    0.0000 N.3     1  UNL1       -0.2886
      9 C           5.4255    1.8667    0.0000 C.3     1  UNL1        0.0723
     10 C           4.5787    1.3779    0.0000 C.3     1  UNL1        0.1235
     11 C           3.8842    2.3067    0.0000 C.3     1  UNL1       -0.0010
     12 C           4.4056    3.0888    0.0000 C.3     1  UNL1        0.0033
     13 C           6.2721    1.3779    0.0000 C.2     1  UNL1       -0.0148
     14 C           6.3609    3.1105    0.0000 C.3     1  UNL1        0.0182
     15 C           3.7320   -1.0663    0.0000 C.3     1  UNL1        0.0615
     16 C           5.4255   -1.0663    0.0000 C.3     1  UNL1        0.1053
     17 C           6.9692    2.3067    0.0000 C.2     1  UNL1       -0.0660
     18 C           4.5787   -1.5551    0.0000 C.3     1  UNL1       -0.0078
     19 C           6.2721   -1.5551    0.0000 C.3     1  UNL1        0.2138
     20 C           6.2721    0.4002    0.0000 C.3     1  UNL1        0.1153
     21 C           2.8660   -1.5663    0.0000 C.3     1  UNL1       -0.0337
     22 C           3.7320   -0.0886    0.0000 C.2     1  UNL1        0.3109
     23 C           6.1326   -0.3592    0.0000 C.3     1  UNL1       -0.0327
     24 C           7.1188   -1.0663    0.0000 C.2     1  UNL1        0.3447
     25 C           6.6947   -2.4614    0.0000 C.3     1  UNL1        0.0862
     26 C           2.8660   -2.5663    0.0000 C.3     1  UNL1       -0.0619
     27 C           2.0000   -1.0663    0.0000 C.3     1  UNL1       -0.0619
     28 H           5.4255    1.0167    0.0000 H       1  UNL1        0.0547
     29 H           3.7721    1.1096    0.0000 H       1  UNL1        0.0753
     30 H           3.4106    2.7068    0.0000 H       1  UNL1        0.0314
     31 H           3.4329    1.8815    0.0000 H       1  UNL1        0.0314
     32 H           4.6198    3.6706    0.0000 H       1  UNL1        0.0428
     33 H           3.8529    3.3698    0.0000 H       1  UNL1        0.0428
     34 H           6.8976    3.4208    0.0000 H       1  UNL1        0.0470
     35 H           6.1190    3.6814    0.0000 H       1  UNL1        0.0470
     36 H           3.1951   -0.7563    0.0000 H       1  UNL1        0.0417
     37 H           4.1802   -2.0300    0.0000 H       1  UNL1        0.0302
     38 H           4.9772   -2.0301    0.0000 H       1  UNL1        0.0302
     39 H           7.5892    2.3079    0.0000 H       1  UNL1        0.0586
     40 H           5.6615    0.5079    0.0000 H       1  UNL1        0.0746
     41 H           6.0601   -0.1824    0.0000 H       1  UNL1        0.0746
     42 H           2.3291   -1.8763    0.0000 H       1  UNL1        0.0303
     43 H           6.5710   -0.7976    0.0000 H       1  UNL1        0.0258
     44 H           6.5710    0.0792    0.0000 H       1  UNL1        0.0258
     45 H           5.6942    0.0792    0.0000 H       1  UNL1        0.0258
     46 H           6.0959   -2.6219    0.0000 H       1  UNL1        0.0592
     47 H           6.7488   -3.0791    0.0000 H       1  UNL1        0.0592
     48 H           2.2460   -2.5663    0.0000 H       1  UNL1        0.0233
     49 H           2.3100   -0.5294    0.0000 H       1  UNL1        0.0233
     50 H           1.4631   -0.7563    0.0000 H       1  UNL1        0.0233
     51 H           1.6900   -1.6032    0.0000 H       1  UNL1        0.0233
     52 H           2.8660   -3.1863    0.0000 H       1  UNL1        0.0233
     53 H           3.4860   -2.5663    0.0000 H       1  UNL1        0.0233
     54 H           5.6050    0.3380    0.0000 H       1  UNL1        0.2103
     55 H           5.4144   -2.6815    0.0000 H       1  UNL1        0.2111
     56 H           7.9530   -3.1105    0.0000 H       1  UNL1        0.2095
@<TRIPOS>BOND
     1     1    10    1
     2     1    22    1
     3     2    20    1
     4     2    24    1
     5    16     3    1
     6     3    54    1
     7    19     4    1
     8     4    55    1
     9     5    22    2
    10     6    25    1
    11     6    56    1
    12     7    24    2
    13     8     9    1
    14     8    12    1
    15     8    14    1
    16     9    10    1
    17     9    13    1
    18     9    28    1
    19    10    11    1
    20    10    29    1
    21    11    12    1
    22    11    30    1
    23    11    31    1
    24    12    32    1
    25    12    33    1
    26    13    17    2
    27    13    20    1
    28    14    17    1
    29    14    34    1
    30    14    35    1
    31    15    18    1
    32    15    21    1
    33    15    22    1
    34    15    36    1
    35    16    18    1
    36    16    19    1
    37    16    23    1
    38    17    39    1
    39    18    37    1
    40    18    38    1
    41    19    24    1
    42    19    25    1
    43    20    40    1
    44    20    41    1
    45    21    26    1
    46    21    27    1
    47    21    42    1
    48    23    43    1
    49    23    44    1
    50    23    45    1
    51    25    46    1
    52    25    47    1
    53    26    48    1
    54    26    52    1
    55    26    53    1
    56    27    49    1
    57    27    50    1
    58    27    51    1
