@<TRIPOS>MOLECULE
IMPHY009658
 24 24 0 0 0
SMALL
GASTEIGER

@<TRIPOS>ATOM
      1 C           4.5981   -0.5000    0.0000 C.ar    1  UNL1       -0.0474
      2 C           3.7320    1.0000    0.0000 C.ar    1  UNL1       -0.0473
      3 C           2.8660    0.5000    0.0000 C.ar    1  UNL1       -0.0475
      4 C           5.4641   -1.0000    0.0000 C.3     1  UNL1       -0.0305
      5 C           4.5981    0.5000    0.0000 C.ar    1  UNL1       -0.0554
      6 C           3.7320   -1.0000    0.0000 C.ar    1  UNL1       -0.0583
      7 C           2.8660   -0.5000    0.0000 C.ar    1  UNL1       -0.0583
      8 C           3.7320    2.0000    0.0000 C.3     1  UNL1       -0.0395
      9 C           2.0000    1.0000    0.0000 C.3     1  UNL1       -0.0395
     10 C           5.4641   -2.0000    0.0000 C.3     1  UNL1       -0.0613
     11 H           6.0747   -1.1077    0.0000 H       1  UNL1        0.0311
     12 H           5.6762   -0.4174    0.0000 H       1  UNL1        0.0311
     13 H           5.1350    0.8100    0.0000 H       1  UNL1        0.0623
     14 H           3.7320   -1.6200    0.0000 H       1  UNL1        0.0620
     15 H           2.3291   -0.8100    0.0000 H       1  UNL1        0.0620
     16 H           4.3520    2.0000    0.0000 H       1  UNL1        0.0278
     17 H           3.7320    2.6200    0.0000 H       1  UNL1        0.0278
     18 H           3.1120    2.0000    0.0000 H       1  UNL1        0.0278
     19 H           2.3100    1.5369    0.0000 H       1  UNL1        0.0278
     20 H           1.4631    1.3100    0.0000 H       1  UNL1        0.0278
     21 H           1.6900    0.4631    0.0000 H       1  UNL1        0.0278
     22 H           4.8441   -2.0000    0.0000 H       1  UNL1        0.0233
     23 H           5.4641   -2.6200    0.0000 H       1  UNL1        0.0233
     24 H           6.0841   -2.0000    0.0000 H       1  UNL1        0.0233
@<TRIPOS>BOND
     1     1     4    1
     2     1     5   ar
     3     1     6   ar
     4     2     3   ar
     5     2     5   ar
     6     2     8    1
     7     3     7   ar
     8     3     9    1
     9     4    10    1
    10     4    11    1
    11     4    12    1
    12     5    13    1
    13     6     7   ar
    14     6    14    1
    15     7    15    1
    16     8    16    1
    17     8    17    1
    18     8    18    1
    19     9    19    1
    20     9    20    1
    21     9    21    1
    22    10    22    1
    23    10    23    1
    24    10    24    1
