@<TRIPOS>MOLECULE
IMPHY017212
 26 25 0 0 0
SMALL
GASTEIGER

@<TRIPOS>ATOM
      1 O           4.2320   -1.2505    0.0000 O.3     1  UNL1       -0.3760
      2 C           3.7320   -0.3845    0.0000 C.3     1  UNL1        0.1307
      3 C           4.5981    0.1155    0.0000 C.3     1  UNL1       -0.0062
      4 C           2.8660   -0.8845    0.0000 C.3     1  UNL1       -0.0062
      5 C           5.4641   -0.3845    0.0000 C.3     1  UNL1       -0.0591
      6 C           4.5981    1.1155    0.0000 C.3     1  UNL1       -0.0591
      7 C           2.0000   -0.3845    0.0000 C.3     1  UNL1       -0.0591
      8 C           2.8660   -1.8845    0.0000 C.3     1  UNL1       -0.0591
      9 C           3.2320    0.4815    0.0000 C.1     1  UNL1       -0.0705
     10 C           2.7320    1.3476    0.0000 C.1     1  UNL1       -0.1163
     11 H           4.5981   -0.5045    0.0000 H       1  UNL1        0.0333
     12 H           2.8660   -0.2645    0.0000 H       1  UNL1        0.0333
     13 H           5.1541   -0.9214    0.0000 H       1  UNL1        0.0234
     14 H           6.0010   -0.6945    0.0000 H       1  UNL1        0.0234
     15 H           5.7741    0.1524    0.0000 H       1  UNL1        0.0234
     16 H           5.2181    1.1155    0.0000 H       1  UNL1        0.0234
     17 H           4.5981    1.7355    0.0000 H       1  UNL1        0.0234
     18 H           3.9781    1.1155    0.0000 H       1  UNL1        0.0234
     19 H           2.3100    0.1524    0.0000 H       1  UNL1        0.0234
     20 H           1.4631   -0.0745    0.0000 H       1  UNL1        0.0234
     21 H           1.6900   -0.9214    0.0000 H       1  UNL1        0.0234
     22 H           2.2460   -1.8845    0.0000 H       1  UNL1        0.0234
     23 H           2.8660   -2.5045    0.0000 H       1  UNL1        0.0234
     24 H           3.4860   -1.8845    0.0000 H       1  UNL1        0.0234
     25 H           3.9220   -1.7874    0.0000 H       1  UNL1        0.2114
     26 H           2.4220    1.8845    0.0000 H       1  UNL1        0.1229
@<TRIPOS>BOND
     1     1     2    1
     2     1    25    1
     3     2     3    1
     4     2     4    1
     5     2     9    1
     6     3     5    1
     7     3     6    1
     8     3    11    1
     9     4     7    1
    10     4     8    1
    11     4    12    1
    12     5    13    1
    13     5    14    1
    14     5    15    1
    15     6    16    1
    16     6    17    1
    17     6    18    1
    18     7    19    1
    19     7    20    1
    20     7    21    1
    21     8    22    1
    22     8    23    1
    23     8    24    1
    24     9    10    3
    25    10    26    1
