@<TRIPOS>MOLECULE
IMPHY012306
 23 22 0 0 0
SMALL
GASTEIGER

@<TRIPOS>ATOM
      1 S1          2.8660   -0.2500    0.0000 S.3     1  <1>        -0.1587
      2 O1          5.4641    1.2500    0.0000 O.3     1  <1>        -0.4795
      3 O2          4.5981    2.7500    0.0000 O.2     1  <1>        -0.2492
      4 N1          2.8660    1.7500    0.0000 N.3     1  <1>        -0.3178
      5 C1          3.7320    1.2500    0.0000 C.3     1  <1>         0.1123
      6 C2          3.7320    0.2500    0.0000 C.3     1  <1>         0.0193
      7 C3          2.8660   -1.2500    0.0000 C.3     1  <1>        -0.0065
      8 C4          2.0000   -1.7500    0.0000 C.3     1  <1>        -0.0469
      9 C5          2.0000   -2.7500    0.0000 C.3     1  <1>        -0.0645
     10 C6          4.5981    1.7500    0.0000 C.2     1  <1>         0.3225
     11 H1          3.7320    1.8700    0.0000 H       1  <1>         0.0582
     12 H2          3.9441   -0.3326    0.0000 H       1  <1>         0.0397
     13 H3          4.3426    0.3577    0.0000 H       1  <1>         0.0397
     14 H4          3.0781   -1.8326    0.0000 H       1  <1>         0.0376
     15 H5          3.4766   -1.1423    0.0000 H       1  <1>         0.0376
     16 H6          1.7880   -1.1674    0.0000 H       1  <1>         0.0270
     17 H7          1.3894   -1.8577    0.0000 H       1  <1>         0.0270
     18 H8          1.3800   -2.7500    0.0000 H       1  <1>         0.0230
     19 H9          2.0000   -3.3700    0.0000 H       1  <1>         0.0230
     20 H10         2.6200   -2.7500    0.0000 H       1  <1>         0.0230
     21 H11         2.3291    1.4400    0.0000 H       1  <1>         0.1190
     22 H12         2.8660    2.3700    0.0000 H       1  <1>         0.1190
     23 H13         6.0010    1.5600    0.0000 H       1  <1>         0.2951
@<TRIPOS>BOND
     1     1     6    1
     2     1     7    1
     3     2    10    1
     4     2    23    1
     5     3    10    2
     6     5     4    1
     7     4    21    1
     8     4    22    1
     9     5     6    1
    10     5    10    1
    11     5    11    1
    12     6    12    1
    13     6    13    1
    14     7     8    1
    15     7    14    1
    16     7    15    1
    17     8     9    1
    18     8    16    1
    19     8    17    1
    20     9    18    1
    21     9    19    1
    22     9    20    1
