@<TRIPOS>MOLECULE
IMPHY001839
 43 46 0 0 0
SMALL
GASTEIGER

@<TRIPOS>ATOM
      1 O           3.1185    0.2231    0.0000 O.3     1  UNL1       -0.3840
      2 O           5.7035    1.3953    0.0000 O.3     1  UNL1       -0.4566
      3 O           2.0588    0.4714    0.0000 O.3     1  UNL1       -0.4627
      4 O           3.5969    2.3612    0.0000 O.3     1  UNL1       -0.3839
      5 O           2.5124   -1.9245    0.0000 O.3     1  UNL1       -0.3889
      6 O           6.4106   -1.1596    0.0000 O.3     1  UNL1       -0.3799
      7 O           2.0000   -0.8786    0.0000 O.2     1  UNL1       -0.2499
      8 O           7.0862    0.4714    0.0000 O.2     1  UNL1       -0.2479
      9 C           4.7796   -0.8352    0.0000 C.3     1  UNL1        0.0456
     10 C           3.8558   -0.4525    0.0000 C.3     1  UNL1        0.1222
     11 C           3.4731    0.4714    0.0000 C.3     1  UNL1        0.1644
     12 C           4.6991   -1.8260    0.0000 C.3     1  UNL1       -0.0300
     13 C           3.8558    1.3953    0.0000 C.3     1  UNL1        0.1216
     14 C           4.4136    0.4714    0.0000 C.3     1  UNL1       -0.0013
     15 C           3.2121   -1.2101    0.0000 C.3     1  UNL1        0.0860
     16 C           4.7796    1.7780    0.0000 C.3     1  UNL1        0.1333
     17 C           3.7322   -2.0572    0.0000 C.3     1  UNL1       -0.0208
     18 C           5.7035   -0.4525    0.0000 C.3     1  UNL1        0.1602
     19 C           2.7660    1.1785    0.0000 C.3     1  UNL1        0.1138
     20 C           2.7660   -0.2357    0.0000 C.2     1  UNL1        0.3225
     21 C           5.4583   -2.4767    0.0000 C.3     1  UNL1       -0.0616
     22 C           2.9494    1.8179    0.0000 C.3     1  UNL1       -0.0313
     23 C           6.0862    0.4714    0.0000 C.2     1  UNL1        0.3370
     24 H           4.5535   -2.4287    0.0000 H       1  UNL1        0.0306
     25 H           3.9071    0.8289    0.0000 H       1  UNL1        0.0309
     26 H           5.0336    0.4714    0.0000 H       1  UNL1        0.0309
     27 H           2.7541   -0.7922    0.0000 H       1  UNL1        0.0622
     28 H           4.7796    2.6280    0.0000 H       1  UNL1        0.0763
     29 H           3.1727   -2.3243    0.0000 H       1  UNL1        0.0294
     30 H           3.9390   -2.6417    0.0000 H       1  UNL1        0.0294
     31 H           6.3116   -0.3315    0.0000 H       1  UNL1        0.0717
     32 H           3.2044    1.6169    0.0000 H       1  UNL1        0.0710
     33 H           2.3276    1.6169    0.0000 H       1  UNL1        0.0710
     34 H           5.0549   -2.9475    0.0000 H       1  UNL1        0.0233
     35 H           5.9291   -2.8802    0.0000 H       1  UNL1        0.0233
     36 H           5.8618   -2.0060    0.0000 H       1  UNL1        0.0233
     37 H           2.5956    0.5563    0.0000 H       1  UNL1        0.2103
     38 H           3.2115    2.3798    0.0000 H       1  UNL1        0.0259
     39 H           2.3875    2.0799    0.0000 H       1  UNL1        0.0259
     40 H           2.6874    1.2560    0.0000 H       1  UNL1        0.0259
     41 H           2.9980    2.5217    0.0000 H       1  UNL1        0.2104
     42 H           2.6791   -2.5217    0.0000 H       1  UNL1        0.2099
     43 H           7.0095   -0.9991    0.0000 H       1  UNL1        0.2105
@<TRIPOS>BOND
     1    10     1    1
     2     1    37    1
     3     2    16    1
     4     2    23    1
     5     3    19    1
     6     3    20    1
     7    13     4    1
     8     4    41    1
     9    15     5    1
    10     5    42    1
    11    18     6    1
    12     6    43    1
    13     7    20    2
    14     8    23    2
    15     9    10    1
    16     9    12    1
    17     9    14    1
    18     9    18    1
    19    10    11    1
    20    10    15    1
    21    11    13    1
    22    11    19    1
    23    11    20    1
    24    12    17    1
    25    12    21    1
    26    12    24    1
    27    13    16    1
    28    13    22    1
    29    14    16    1
    30    14    25    1
    31    14    26    1
    32    15    17    1
    33    15    27    1
    34    16    28    1
    35    17    29    1
    36    17    30    1
    37    18    23    1
    38    18    31    1
    39    19    32    1
    40    19    33    1
    41    21    34    1
    42    21    35    1
    43    21    36    1
    44    22    38    1
    45    22    39    1
    46    22    40    1
