@<TRIPOS>MOLECULE
IMPHY000490
 32 35 0 0 0
SMALL
GASTEIGER

@<TRIPOS>ATOM
      1 O        2531.6100 2439.9000    0.0000 O.3     1  UNL1       -0.4440
      2 C        2496.9700 2459.8500    0.0000 C.ar    1  UNL1        0.2144
      3 C        2496.9700 2500.1500    0.0000 C.ar    1  UNL1        0.1824
      4 O        2462.4300 2520.3000    0.0000 O.2     1  UNL1       -0.4500
      5 C        2427.8900 2500.1500    0.0000 C.ar    1  UNL1        0.1549
      6 C        2427.8900 2459.8500    0.0000 C.ar    1  UNL1        0.1156
      7 C        2462.4300 2439.7000    0.0000 C.ar    1  UNL1        0.2384
      8 O        2462.4300 2399.7000    0.0000 O.2     1  UNL1       -0.2830
      9 C        2393.3500 2439.7000    0.0000 C.ar    1  UNL1        0.2050
     10 O        2393.3500 2399.7000    0.0000 O.3     1  UNL1       -0.2862
     11 C        2358.8100 2459.8500    0.0000 C.ar    1  UNL1        0.0843
     12 C        2358.8100 2500.1500    0.0000 C.ar    1  UNL1        0.2020
     13 C        2393.3500 2520.3000    0.0000 C.ar    1  UNL1        0.0798
     14 O        2324.0700 2520.2000    0.0000 O.3     1  UNL1       -0.2864
     15 C        2531.6100 2520.2000    0.0000 C.ar    1  UNL1        0.0443
     16 C        2531.6100 2560.2000    0.0000 C.ar    1  UNL1        0.0487
     17 C        2566.2500 2580.1500    0.0000 C.ar    1  UNL1        0.2376
     18 O        2566.2500 2620.1500    0.0000 O.3     1  UNL1       -0.2830
     19 C        2600.8900 2560.2000    0.0000 C.ar    1  UNL1        0.2727
     20 C        2600.8900 2520.2000    0.0000 C.ar    1  UNL1        0.2376
     21 C        2566.2500 2500.1500    0.0000 C.ar    1  UNL1        0.0487
     22 O        2635.5300 2500.1500    0.0000 O.3     1  UNL1       -0.2830
     23 O        2635.5300 2580.1500    0.0000 O.3     1  UNL1       -0.2797
     24 C        2571.6100 2439.9000    0.0000 C.3     1  UNL1        0.3220
     25 C        2606.2500 2419.8500    0.0000 C.3     1  UNL1        0.2542
     26 O        2606.2500 2379.8500    0.0000 O.3     1  UNL1       -0.2135
     27 C        2640.8900 2439.9000    0.0000 C.3     1  UNL1        0.2211
     28 O        2675.9300 2420.5500    0.0000 O.3     1  UNL1       -0.2173
     29 C        2640.8900 2479.9000    0.0000 C.3     1  UNL1        0.2144
     30 C        2606.2500 2499.8500    0.0000 C.3     1  UNL1        0.1814
     31 O        2571.6100 2479.9000    0.0000 O.3     1  UNL1       -0.3158
     32 O        2675.5300 2499.8500    0.0000 O.3     1  UNL1       -0.2176
@<TRIPOS>BOND
     1     1     2    1
     2     2     3   ar
     3     2     7   ar
     4     3     4   ar
     5     3    15    1
     6     4     5   ar
     7     5    13   ar
     8     6     5   ar
     9     6     9   ar
    10     7     6   ar
    11     7     8    2
    12     9    10    1
    13     9    11   ar
    14    11    12   ar
    15    12    14    1
    16    13    12   ar
    17    15    16   ar
    18    15    21   ar
    19    16    17   ar
    20    17    18    1
    21    17    19   ar
    22    19    23    1
    23    20    19   ar
    24    20    22    1
    25    21    20   ar
    26    24     1    1
    27    24    25    1
    28    24    31    1
    29    25    26    1
    30    25    27    1
    31    27    28    1
    32    27    29    1
    33    29    32    1
    34    30    29    1
    35    31    30    1
