@<TRIPOS>MOLECULE
IMPHY004752
 28 30 0 0 0
SMALL
GASTEIGER

@<TRIPOS>ATOM
      1 O           8.1962    1.0241    0.0000 O.3     1  UNL1       -0.4951
      2 O           4.6660    2.0000    0.0000 O.2     1  UNL1       -0.2866
      3 O           4.6660   -2.0000    0.0000 O.2     1  UNL1       -0.2866
      4 C           5.5321    0.5000    0.0000 C.ar    1  UNL1        0.0365
      5 C           5.5321   -0.5000    0.0000 C.ar    1  UNL1        0.0333
      6 C           3.8000    0.5000    0.0000 C.ar    1  UNL1        0.0331
      7 C           3.8000   -0.5000    0.0000 C.ar    1  UNL1        0.0331
      8 C           4.6660    1.0000    0.0000 C.2     1  UNL1        0.1946
      9 C           4.6660   -1.0000    0.0000 C.2     1  UNL1        0.1945
     10 C           6.4260    1.0347    0.0000 C.ar    1  UNL1       -0.0084
     11 C           6.4260   -1.0347    0.0000 C.ar    1  UNL1       -0.0468
     12 C           2.9061    1.0347    0.0000 C.ar    1  UNL1       -0.0502
     13 C           2.9061   -1.0347    0.0000 C.ar    1  UNL1       -0.0502
     14 C           7.3321    0.5208    0.0000 C.ar    1  UNL1        0.1208
     15 C           7.3321   -0.5208    0.0000 C.ar    1  UNL1       -0.0192
     16 C           2.0000    0.5208    0.0000 C.ar    1  UNL1       -0.0610
     17 C           2.0000   -0.5208    0.0000 C.ar    1  UNL1       -0.0610
     18 C           9.0641    0.5275    0.0000 C.3     1  UNL1        0.0788
     19 H           6.4188    1.6546    0.0000 H       1  UNL1        0.0661
     20 H           6.4188   -1.6546    0.0000 H       1  UNL1        0.0626
     21 H           2.9132    1.6546    0.0000 H       1  UNL1        0.0625
     22 H           2.9132   -1.6546    0.0000 H       1  UNL1        0.0625
     23 H           7.8678   -0.8329    0.0000 H       1  UNL1        0.0654
     24 H           1.4643    0.8329    0.0000 H       1  UNL1        0.0618
     25 H           1.4643   -0.8329    0.0000 H       1  UNL1        0.0618
     26 H           8.7562   -0.0106    0.0000 H       1  UNL1        0.0660
     27 H           9.6022    0.2196    0.0000 H       1  UNL1        0.0660
     28 H           9.3720    1.0656    0.0000 H       1  UNL1        0.0660
@<TRIPOS>BOND
     1     1    14    1
     2     1    18    1
     3     2     8    2
     4     3     9    2
     5     4     5   ar
     6     4     8    1
     7     4    10   ar
     8     5     9    1
     9     5    11   ar
    10     6     7   ar
    11     6     8    1
    12     6    12   ar
    13     7     9    1
    14     7    13   ar
    15    10    14   ar
    16    10    19    1
    17    11    15   ar
    18    11    20    1
    19    12    16   ar
    20    12    21    1
    21    13    17   ar
    22    13    22    1
    23    14    15   ar
    24    15    23    1
    25    16    17   ar
    26    16    24    1
    27    17    25    1
    28    18    26    1
    29    18    27    1
    30    18    28    1
