@<TRIPOS>MOLECULE
IMPHY017131
 39 40 0 0 0
SMALL
GASTEIGER

@<TRIPOS>ATOM
      1 C           5.1906    0.0766    0.0000 C.3     1  UNL1       -0.0025
      2 C           6.0846    0.6112    0.0000 C.3     1  UNL1       -0.0253
      3 C           6.9906    0.0974    0.0000 C.3     1  UNL1       -0.0436
      4 C           5.1906   -0.9234    0.0000 C.2     1  UNL1       -0.0665
      5 C           4.4088    0.7001    0.0000 C.3     1  UNL1       -0.0249
      6 C           6.9906   -0.9442    0.0000 C.3     1  UNL1       -0.0340
      7 C           5.0170    1.0614    0.0000 C.3     1  UNL1       -0.0551
      8 C           6.5745    1.4830    0.0000 C.3     1  UNL1       -0.0590
      9 C           5.7317    1.5469    0.0000 C.3     1  UNL1       -0.0590
     10 C           4.4088   -1.5469    0.0000 C.3     1  UNL1       -0.0275
     11 C           6.0846   -1.4581    0.0000 C.2     1  UNL1       -0.0842
     12 C           3.4339    0.4775    0.0000 C.2     1  UNL1       -0.0842
     13 C           3.4339   -1.3244    0.0000 C.3     1  UNL1       -0.0283
     14 C           3.0000   -0.4234    0.0000 C.2     1  UNL1       -0.0762
     15 C           2.0000   -0.4234    0.0000 C.3     1  UNL1       -0.0438
     16 H           7.6015   -0.0087    0.0000 H       1  UNL1        0.0274
     17 H           7.1997    0.6811    0.0000 H       1  UNL1        0.0274
     18 H           4.8936    1.0866    0.0000 H       1  UNL1        0.0316
     19 H           4.1398    1.2587    0.0000 H       1  UNL1        0.0316
     20 H           7.1997   -1.5279    0.0000 H       1  UNL1        0.0308
     21 H           7.6015   -0.8381    0.0000 H       1  UNL1        0.0308
     22 H           5.6276    1.1690    0.0000 H       1  UNL1        0.0238
     23 H           4.9093    1.6720    0.0000 H       1  UNL1        0.0238
     24 H           4.4064    0.9537    0.0000 H       1  UNL1        0.0238
     25 H           7.1150    1.1792    0.0000 H       1  UNL1        0.0235
     26 H           6.8783    2.0235    0.0000 H       1  UNL1        0.0235
     27 H           6.0340    1.7868    0.0000 H       1  UNL1        0.0235
     28 H           6.3118    1.7657    0.0000 H       1  UNL1        0.0235
     29 H           5.5130    2.1270    0.0000 H       1  UNL1        0.0235
     30 H           5.1516    1.3281    0.0000 H       1  UNL1        0.0235
     31 H           4.1398   -2.1055    0.0000 H       1  UNL1        0.0313
     32 H           4.8936   -1.9335    0.0000 H       1  UNL1        0.0313
     33 H           6.0774   -2.0780    0.0000 H       1  UNL1        0.0572
     34 H           2.8294   -1.4624    0.0000 H       1  UNL1        0.0313
     35 H           3.4339   -1.9444    0.0000 H       1  UNL1        0.0313
     36 H           3.0473    0.9623    0.0000 H       1  UNL1        0.0572
     37 H           2.0000    0.1966    0.0000 H       1  UNL1        0.0274
     38 H           1.3800   -0.4234    0.0000 H       1  UNL1        0.0274
     39 H           2.0000   -1.0434    0.0000 H       1  UNL1        0.0274
@<TRIPOS>BOND
     1     1     2    1
     2     1     4    1
     3     1     5    1
     4     1     7    1
     5     2     3    1
     6     2     8    1
     7     2     9    1
     8     3     6    1
     9     3    16    1
    10     3    17    1
    11     4    10    1
    12     4    11    2
    13     5    12    1
    14     5    18    1
    15     5    19    1
    16     6    11    1
    17     6    20    1
    18     6    21    1
    19     7    22    1
    20     7    23    1
    21     7    24    1
    22     8    25    1
    23     8    26    1
    24     8    27    1
    25     9    28    1
    26     9    29    1
    27     9    30    1
    28    10    13    1
    29    10    31    1
    30    10    32    1
    31    11    33    1
    32    12    14    2
    33    12    36    1
    34    13    14    1
    35    13    34    1
    36    13    35    1
    37    14    15    1
    38    15    37    1
    39    15    38    1
    40    15    39    1
