@<TRIPOS>MOLECULE
IMPHY002472
 81 85 0 0 0
SMALL
GASTEIGER

@<TRIPOS>ATOM
      1 O           4.9190    1.9008    0.0000 O.3     1  UNL1       -0.3480
      2 O           6.6791    1.6220    0.0000 O.3     1  UNL1       -0.3667
      3 O          13.0711   -1.6931    0.0000 O.2     1  UNL1       -0.2968
      4 C           7.0009   -0.4462    0.0000 C.3     1  UNL1       -0.0197
      5 C           7.3083   -1.3978    0.0000 C.3     1  UNL1       -0.0051
      6 C           6.0068   -0.4471    0.0000 C.3     1  UNL1       -0.0273
      7 C           8.9565   -0.8654    0.0000 C.3     1  UNL1       -0.0136
      8 C           9.9782   -1.0680    0.0000 C.3     1  UNL1       -0.0212
      9 C           8.2861   -1.6074    0.0000 C.2     1  UNL1       -0.0634
     10 C           7.6713    0.2958    0.0000 C.3     1  UNL1       -0.0460
     11 C           6.5015   -1.9786    0.0000 C.3     1  UNL1       -0.0431
     12 C           5.6988   -1.3922    0.0000 C.3     1  UNL1       -0.0485
     13 C           8.6491    0.0862    0.0000 C.3     1  UNL1       -0.0455
     14 C          10.3060   -2.0567    0.0000 C.3     1  UNL1       -0.0198
     15 C           5.4190    0.3619    0.0000 C.3     1  UNL1        0.0157
     16 C           6.6935    0.5054    0.0000 C.3     1  UNL1       -0.0585
     17 C           7.6156   -2.3494    0.0000 C.3     1  UNL1       -0.0553
     18 C           9.6077   -2.8296    0.0000 C.3     1  UNL1       -0.0302
     19 C          10.6868   -0.2464    0.0000 C.3     1  UNL1       -0.0401
     20 C          11.3651   -2.2923    0.0000 C.3     1  UNL1        0.0270
     21 C           8.5909   -2.6034    0.0000 C.2     1  UNL1       -0.0836
     22 C           9.6635   -0.1188    0.0000 C.3     1  UNL1       -0.0587
     23 C           4.4190    0.3619    0.0000 C.3     1  UNL1       -0.0188
     24 C           5.7281    1.3130    0.0000 C.3     1  UNL1        0.1596
     25 C          11.7511   -0.4574    0.0000 C.3     1  UNL1        0.0069
     26 C          12.0925   -1.4873    0.0000 C.2     1  UNL1        0.1392
     27 C           4.1100    1.3130    0.0000 C.3     1  UNL1        0.0623
     28 C          12.1045   -2.9656    0.0000 C.3     1  UNL1       -0.0528
     29 C          11.1518   -3.2693    0.0000 C.3     1  UNL1       -0.0528
     30 C           3.1590    1.6220    0.0000 C.3     1  UNL1       -0.0241
     31 C           2.9511    2.6002    0.0000 C.3     1  UNL1       -0.0444
     32 C           2.0000    2.9092    0.0000 C.3     1  UNL1       -0.0626
     33 C           3.6942    3.2693    0.0000 C.3     1  UNL1       -0.0626
     34 H           5.1672   -0.5797    0.0000 H       1  UNL1        0.0311
     35 H           9.5214   -0.2304    0.0000 H       1  UNL1        0.0351
     36 H           7.9046    0.8702    0.0000 H       1  UNL1        0.0271
     37 H           7.1461    0.6252    0.0000 H       1  UNL1        0.0271
     38 H           6.0852   -2.4381    0.0000 H       1  UNL1        0.0274
     39 H           6.9147   -2.4409    0.0000 H       1  UNL1        0.0274
     40 H           5.1328   -1.1392    0.0000 H       1  UNL1        0.0268
     41 H           5.3877   -1.9285    0.0000 H       1  UNL1        0.0268
     42 H           9.2632    0.1714    0.0000 H       1  UNL1        0.0271
     43 H           8.6718    0.7058    0.0000 H       1  UNL1        0.0271
     44 H          10.5642   -2.8666    0.0000 H       1  UNL1        0.0318
     45 H           5.0332   -0.3954    0.0000 H       1  UNL1        0.0353
     46 H           7.2835    0.6959    0.0000 H       1  UNL1        0.0235
     47 H           6.5030    1.0954    0.0000 H       1  UNL1        0.0235
     48 H           6.1036    0.3148    0.0000 H       1  UNL1        0.0235
     49 H           7.0257   -2.5400    0.0000 H       1  UNL1        0.0238
     50 H           7.8062   -2.9394    0.0000 H       1  UNL1        0.0238
     51 H           8.2056   -2.1588    0.0000 H       1  UNL1        0.0238
     52 H           9.3715   -3.4028    0.0000 H       1  UNL1        0.0311
     53 H          10.1321   -3.1604    0.0000 H       1  UNL1        0.0311
     54 H          10.9097    0.3322    0.0000 H       1  UNL1        0.0275
     55 H          10.1549    0.0722    0.0000 H       1  UNL1        0.0275
     56 H           8.1700   -3.0586    0.0000 H       1  UNL1        0.0572
     57 H          10.2520    0.0763    0.0000 H       1  UNL1        0.0235
     58 H           9.4684    0.4697    0.0000 H       1  UNL1        0.0235
     59 H           9.0750   -0.3139    0.0000 H       1  UNL1        0.0235
     60 H           3.8126    0.2330    0.0000 H       1  UNL1        0.0294
     61 H           4.4838   -0.2547    0.0000 H       1  UNL1        0.0294
     62 H           6.1665    0.8746    0.0000 H       1  UNL1        0.0910
     63 H          12.3643   -0.3659    0.0000 H       1  UNL1        0.0342
     64 H          11.7658    0.1624    0.0000 H       1  UNL1        0.0342
     65 H           4.0130    1.9254    0.0000 H       1  UNL1        0.0597
     66 H          11.6871   -3.4240    0.0000 H       1  UNL1        0.0239
     67 H          10.5460   -3.1370    0.0000 H       1  UNL1        0.0239
     68 H          12.5629   -3.3830    0.0000 H       1  UNL1        0.0239
     69 H          12.5219   -2.5072    0.0000 H       1  UNL1        0.0239
     70 H          11.0195   -3.8750    0.0000 H       1  UNL1        0.0239
     71 H          11.7575   -3.4016    0.0000 H       1  UNL1        0.0239
     72 H           2.5394    1.6004    0.0000 H       1  UNL1        0.0293
     73 H           3.0727    1.0080    0.0000 H       1  UNL1        0.0293
     74 H           6.8080    2.2285    0.0000 H       1  UNL1        0.2125
     75 H           2.4903    2.1853    0.0000 H       1  UNL1        0.0296
     76 H           2.1916    3.4988    0.0000 H       1  UNL1        0.0232
     77 H           1.4103    3.1008    0.0000 H       1  UNL1        0.0232
     78 H           1.8084    2.3195    0.0000 H       1  UNL1        0.0232
     79 H           4.1091    2.8085    0.0000 H       1  UNL1        0.0232
     80 H           4.1550    3.6842    0.0000 H       1  UNL1        0.0232
     81 H           3.2793    3.7300    0.0000 H       1  UNL1        0.0232
@<TRIPOS>BOND
     1     1    24    1
     2     1    27    1
     3    24     2    1
     4     2    74    1
     5     3    26    2
     6     4     5    1
     7     4     6    1
     8     4    10    1
     9     4    16    1
    10     5     9    1
    11     5    11    1
    12     5    17    1
    13     6    12    1
    14     6    15    1
    15     6    34    1
    16     7     8    1
    17     7     9    1
    18     7    13    1
    19     7    35    1
    20     8    14    1
    21     8    19    1
    22     8    22    1
    23     9    21    2
    24    10    13    1
    25    10    36    1
    26    10    37    1
    27    11    12    1
    28    11    38    1
    29    11    39    1
    30    12    40    1
    31    12    41    1
    32    13    42    1
    33    13    43    1
    34    14    18    1
    35    14    20    1
    36    14    44    1
    37    15    23    1
    38    15    24    1
    39    15    45    1
    40    16    46    1
    41    16    47    1
    42    16    48    1
    43    17    49    1
    44    17    50    1
    45    17    51    1
    46    18    21    1
    47    18    52    1
    48    18    53    1
    49    19    25    1
    50    19    54    1
    51    19    55    1
    52    20    26    1
    53    20    28    1
    54    20    29    1
    55    21    56    1
    56    22    57    1
    57    22    58    1
    58    22    59    1
    59    23    27    1
    60    23    60    1
    61    23    61    1
    62    24    62    1
    63    25    26    1
    64    25    63    1
    65    25    64    1
    66    27    30    1
    67    27    65    1
    68    28    66    1
    69    28    68    1
    70    28    69    1
    71    29    67    1
    72    29    70    1
    73    29    71    1
    74    30    31    1
    75    30    72    1
    76    30    73    1
    77    31    32    1
    78    31    33    1
    79    31    75    1
    80    32    76    1
    81    32    77    1
    82    32    78    1
    83    33    79    1
    84    33    80    1
    85    33    81    1
