@<TRIPOS>MOLECULE
IMPHY017592
 35 36 0 0 0
SMALL
GASTEIGER

@<TRIPOS>ATOM
      1 O           2.8660    1.7327    0.0000 O.2     1  UNL1       -0.2927
      2 C           5.4641   -0.7673    0.0000 C.3     1  UNL1       -0.0068
      3 C           6.3580   -1.3020    0.0000 C.3     1  UNL1       -0.0433
      4 C           4.5981   -1.2673    0.0000 C.3     1  UNL1       -0.0395
      5 C           5.4641    0.2327    0.0000 C.2     1  UNL1       -0.0421
      6 C           7.2641   -0.7881    0.0000 C.3     1  UNL1       -0.0486
      7 C           6.3580    0.7674    0.0000 C.2     1  UNL1       -0.0689
      8 C           7.2641    0.2535    0.0000 C.3     1  UNL1       -0.0314
      9 C           3.7320   -0.7673    0.0000 C.3     1  UNL1       -0.0236
     10 C           5.4641   -1.7673    0.0000 C.3     1  UNL1       -0.0555
     11 C           4.5981    0.7327    0.0000 C.2     1  UNL1       -0.0516
     12 C           3.7320    0.2327    0.0000 C.2     1  UNL1       -0.0050
     13 C           6.3465    1.7673    0.0000 C.3     1  UNL1       -0.0432
     14 C           2.8660    0.7327    0.0000 C.2     1  UNL1        0.1562
     15 C           2.0000    0.2327    0.0000 C.3     1  UNL1       -0.0017
     16 H           5.9534   -1.7718    0.0000 H       1  UNL1        0.0274
     17 H           6.7517   -1.7810    0.0000 H       1  UNL1        0.0274
     18 H           4.1996   -1.7422    0.0000 H       1  UNL1        0.0277
     19 H           4.9966   -1.7422    0.0000 H       1  UNL1        0.0277
     20 H           7.4732   -1.3718    0.0000 H       1  UNL1        0.0269
     21 H           7.8750   -0.6820    0.0000 H       1  UNL1        0.0269
     22 H           7.8750    0.1474    0.0000 H       1  UNL1        0.0310
     23 H           7.4732    0.8372    0.0000 H       1  UNL1        0.0310
     24 H           3.1215   -0.6596    0.0000 H       1  UNL1        0.0314
     25 H           3.5200   -1.3499    0.0000 H       1  UNL1        0.0314
     26 H           4.8441   -1.7673    0.0000 H       1  UNL1        0.0238
     27 H           5.4641   -2.3873    0.0000 H       1  UNL1        0.0238
     28 H           6.0841   -1.7673    0.0000 H       1  UNL1        0.0238
     29 H           4.5981    1.3527    0.0000 H       1  UNL1        0.0624
     30 H           6.9664    1.7745    0.0000 H       1  UNL1        0.0275
     31 H           6.3393    2.3873    0.0000 H       1  UNL1        0.0275
     32 H           5.7265    1.7601    0.0000 H       1  UNL1        0.0275
     33 H           1.6900    0.7696    0.0000 H       1  UNL1        0.0309
     34 H           1.4631   -0.0773    0.0000 H       1  UNL1        0.0309
     35 H           2.3100   -0.3042    0.0000 H       1  UNL1        0.0309
@<TRIPOS>BOND
     1     1    14    2
     2     2     3    1
     3     2     4    1
     4     2     5    1
     5     2    10    1
     6     3     6    1
     7     3    16    1
     8     3    17    1
     9     4     9    1
    10     4    18    1
    11     4    19    1
    12     5     7    2
    13     5    11    1
    14     6     8    1
    15     6    20    1
    16     6    21    1
    17     7     8    1
    18     7    13    1
    19     8    22    1
    20     8    23    1
    21     9    12    1
    22     9    24    1
    23     9    25    1
    24    10    26    1
    25    10    27    1
    26    10    28    1
    27    11    12    2
    28    11    29    1
    29    12    14    1
    30    13    30    1
    31    13    31    1
    32    13    32    1
    33    14    15    1
    34    15    33    1
    35    15    34    1
    36    15    35    1
