@<TRIPOS>MOLECULE
IMPHY007851
 82 87 0 0 0
SMALL
GASTEIGER

@<TRIPOS>ATOM
      1 O           7.5330    0.8748    0.0000 O.3     1  UNL1       -0.3719
      2 O           7.6464    3.2712    0.0000 O.3     1  UNL1       -0.3911
      3 O           2.1233   -2.9612    0.0000 O.3     1  UNL1       -0.3912
      4 O          11.8158    1.6106    0.0000 O.2     1  UNL1       -0.3005
      5 C           6.7804    0.7712    0.0000 C.3     1  UNL1        0.0053
      6 C           7.6464    0.2712    0.0000 C.3     1  UNL1        0.0790
      7 C           5.8704    0.2643    0.0000 C.3     1  UNL1       -0.0206
      8 C           8.5124    0.7712    0.0000 C.3     1  UNL1       -0.0004
      9 C           5.8623   -0.7773    0.0000 C.3     1  UNL1       -0.0293
     10 C           8.5124    1.7712    0.0000 C.3     1  UNL1        0.0256
     11 C           4.9269   -1.3270    0.0000 C.3     1  UNL1       -0.0252
     12 C           6.7804    1.7712    0.0000 C.3     1  UNL1       -0.0177
     13 C           7.6624   -0.7703    0.0000 C.3     1  UNL1       -0.0226
     14 C           7.6464    2.2712    0.0000 C.3     1  UNL1        0.0639
     15 C           6.7644   -1.2981    0.0000 C.3     1  UNL1       -0.0466
     16 C           3.9873   -0.7845    0.0000 C.3     1  UNL1       -0.0278
     17 C           4.9435    0.8284    0.0000 C.3     1  UNL1       -0.0465
     18 C           7.9330    1.5676    0.0000 C.3     1  UNL1        0.0567
     19 C           9.4064    0.2365    0.0000 C.3     1  UNL1       -0.0350
     20 C           9.4064    2.3058    0.0000 C.3     1  UNL1       -0.0417
     21 C           3.9956    0.3005    0.0000 C.3     1  UNL1       -0.0486
     22 C           6.1376    1.5372    0.0000 C.3     1  UNL1       -0.0563
     23 C           5.5356    1.2066    0.0000 C.3     1  UNL1       -0.0587
     24 C           2.9999   -1.3344    0.0000 C.3     1  UNL1       -0.0056
     25 C           4.9443   -2.4570    0.0000 C.3     1  UNL1       -0.0447
     26 C          10.3124    0.7504    0.0000 C.3     1  UNL1        0.0236
     27 C          10.3124    1.7920    0.0000 C.3     1  UNL1       -0.0405
     28 C           5.7929   -1.8270    0.0000 C.3     1  UNL1       -0.0590
     29 C           2.9912   -2.4645    0.0000 C.3     1  UNL1        0.0606
     30 C           3.9700   -3.0296    0.0000 C.3     1  UNL1       -0.0258
     31 C           2.0000   -1.3228    0.0000 C.3     1  UNL1       -0.0572
     32 C           2.5100   -0.4627    0.0000 C.3     1  UNL1       -0.0572
     33 C          10.8091   -0.1176    0.0000 C.3     1  UNL1       -0.0531
     34 C          11.3124    0.7465    0.0000 C.2     1  UNL1        0.1262
     35 H           8.5124   -0.0788    0.0000 H       1  UNL1        0.0336
     36 H           5.8656   -1.6272    0.0000 H       1  UNL1        0.0312
     37 H           6.5683    2.3538    0.0000 H       1  UNL1        0.0297
     38 H           6.1698    1.6635    0.0000 H       1  UNL1        0.0297
     39 H           7.8805   -1.3507    0.0000 H       1  UNL1        0.0293
     40 H           8.2716   -0.6548    0.0000 H       1  UNL1        0.0293
     41 H           8.1833    2.5812    0.0000 H       1  UNL1        0.0600
     42 H           6.3671   -1.7740    0.0000 H       1  UNL1        0.0269
     43 H           7.1654   -1.7710    0.0000 H       1  UNL1        0.0269
     44 H           3.2561   -0.3510    0.0000 H       1  UNL1        0.0312
     45 H           5.3517    1.2951    0.0000 H       1  UNL1        0.0271
     46 H           4.5536    1.3105    0.0000 H       1  UNL1        0.0271
     47 H           7.9016    2.1868    0.0000 H       1  UNL1        0.0566
     48 H           7.3302    1.7128    0.0000 H       1  UNL1        0.0566
     49 H           9.0018   -0.2333    0.0000 H       1  UNL1        0.0278
     50 H           9.8000   -0.2425    0.0000 H       1  UNL1        0.0278
     51 H           9.8000    2.7849    0.0000 H       1  UNL1        0.0272
     52 H           9.0018    2.7756    0.0000 H       1  UNL1        0.0272
     53 H           3.7911    0.8858    0.0000 H       1  UNL1        0.0268
     54 H           3.3840    0.1991    0.0000 H       1  UNL1        0.0268
     55 H           6.6125    1.9358    0.0000 H       1  UNL1        0.0236
     56 H           5.7390    2.0122    0.0000 H       1  UNL1        0.0236
     57 H           5.6626    1.1387    0.0000 H       1  UNL1        0.0236
     58 H           6.1198    1.4142    0.0000 H       1  UNL1        0.0235
     59 H           5.3280    1.7909    0.0000 H       1  UNL1        0.0235
     60 H           4.9514    0.9991    0.0000 H       1  UNL1        0.0235
     61 H           5.1624   -3.0374    0.0000 H       1  UNL1        0.0271
     62 H           5.5535   -2.3415    0.0000 H       1  UNL1        0.0271
     63 H          10.9233    1.6859    0.0000 H       1  UNL1        0.0275
     64 H          10.5215    2.3757    0.0000 H       1  UNL1        0.0275
     65 H           5.4829   -2.3639    0.0000 H       1  UNL1        0.0235
     66 H           6.3299   -2.1370    0.0000 H       1  UNL1        0.0235
     67 H           6.1029   -1.2900    0.0000 H       1  UNL1        0.0235
     68 H           2.9900   -3.0845    0.0000 H       1  UNL1        0.0599
     69 H           3.5727   -3.5056    0.0000 H       1  UNL1        0.0290
     70 H           4.3709   -3.5025    0.0000 H       1  UNL1        0.0290
     71 H           7.1095    3.5812    0.0000 H       1  UNL1        0.2098
     72 H           3.0505   -0.1589    0.0000 H       1  UNL1        0.0236
     73 H           2.2062    0.0778    0.0000 H       1  UNL1        0.0236
     74 H           1.9695   -0.7664    0.0000 H       1  UNL1        0.0236
     75 H           2.0072   -0.7029    0.0000 H       1  UNL1        0.0236
     76 H           1.3800   -1.3157    0.0000 H       1  UNL1        0.0236
     77 H           1.9928   -1.9428    0.0000 H       1  UNL1        0.0236
     78 H          10.2710   -0.4255    0.0000 H       1  UNL1        0.0239
     79 H          11.1170   -0.6557    0.0000 H       1  UNL1        0.0239
     80 H          11.3472    0.1904    0.0000 H       1  UNL1        0.0239
     81 H          11.6203    0.2084    0.0000 H       1  UNL1        0.1032
     82 H           2.1209   -3.5812    0.0000 H       1  UNL1        0.2098
@<TRIPOS>BOND
     1     1     6    1
     2     1    18    1
     3    14     2    1
     4     2    71    1
     5    29     3    1
     6     3    82    1
     7     4    34    2
     8     5     6    1
     9     5     7    1
    10     5    12    1
    11     5    22    1
    12     6     8    1
    13     6    13    1
    14     7     9    1
    15     7    17    1
    16     7    23    1
    17     8    10    1
    18     8    19    1
    19     8    35    1
    20     9    11    1
    21     9    15    1
    22     9    36    1
    23    10    14    1
    24    10    18    1
    25    10    20    1
    26    11    16    1
    27    11    25    1
    28    11    28    1
    29    12    14    1
    30    12    37    1
    31    12    38    1
    32    13    15    1
    33    13    39    1
    34    13    40    1
    35    14    41    1
    36    15    42    1
    37    15    43    1
    38    16    21    1
    39    16    24    1
    40    16    44    1
    41    17    21    1
    42    17    45    1
    43    17    46    1
    44    18    47    1
    45    18    48    1
    46    19    26    1
    47    19    49    1
    48    19    50    1
    49    20    27    1
    50    20    51    1
    51    20    52    1
    52    21    53    1
    53    21    54    1
    54    22    55    1
    55    22    56    1
    56    22    57    1
    57    23    58    1
    58    23    59    1
    59    23    60    1
    60    24    29    1
    61    24    31    1
    62    24    32    1
    63    25    30    1
    64    25    61    1
    65    25    62    1
    66    26    27    1
    67    26    33    1
    68    26    34    1
    69    27    63    1
    70    27    64    1
    71    28    65    1
    72    28    66    1
    73    28    67    1
    74    29    30    1
    75    29    68    1
    76    30    69    1
    77    30    70    1
    78    31    75    1
    79    31    76    1
    80    31    77    1
    81    32    72    1
    82    32    73    1
    83    32    74    1
    84    33    78    1
    85    33    79    1
    86    33    80    1
    87    34    81    1
