@<TRIPOS>MOLECULE
IMPHY005304
 143 150 0 0 0
SMALL
GASTEIGER

@<TRIPOS>ATOM
      1 O           7.7331    0.5900    0.0000 O.3     1  UNL1       -0.3449
      2 O          16.7220    3.7298    0.0000 O.3     1  UNL1       -0.3912
      3 O           6.8671    2.0900    0.0000 O.3     1  UNL1       -0.3315
      4 O           6.0010   -0.4100    0.0000 O.3     1  UNL1       -0.3377
      5 O           4.2690    0.5900    0.0000 O.3     1  UNL1       -0.3864
      6 O           4.2690    2.5900    0.0000 O.3     1  UNL1       -0.3860
      7 O           4.2690   -0.4100    0.0000 O.3     1  UNL1       -0.3405
      8 O           5.1350    4.0900    0.0000 O.3     1  UNL1       -0.4788
      9 O           6.8671    4.0900    0.0000 O.2     1  UNL1       -0.2480
     10 O           6.0010   -2.4100    0.0000 O.3     1  UNL1       -0.3378
     11 O           4.2690   -3.4100    0.0000 O.3     1  UNL1       -0.3864
     12 O           2.5369   -2.4100    0.0000 O.3     1  UNL1       -0.3865
     13 O           5.1350   -3.9100    0.0000 O.3     1  UNL1       -0.3431
     14 O           2.5369    0.5900    0.0000 O.3     1  UNL1       -0.3924
     15 O           7.7331   -3.4100    0.0000 O.3     1  UNL1       -0.3841
     16 O           7.7331   -5.4100    0.0000 O.3     1  UNL1       -0.3864
     17 O           6.0010   -6.4100    0.0000 O.3     1  UNL1       -0.3866
     18 C          12.2541    2.1598    0.0000 C.3     1  UNL1       -0.0194
     19 C          11.3862    2.6565    0.0000 C.3     1  UNL1       -0.0257
     20 C          10.4781    2.1461    0.0000 C.3     1  UNL1       -0.0250
     21 C          13.1182    2.6631    0.0000 C.3     1  UNL1       -0.0051
     22 C          10.4741    1.1045    0.0000 C.3     1  UNL1       -0.0278
     23 C          12.2742    1.1184    0.0000 C.3     1  UNL1       -0.0463
     24 C          13.1144    3.6631    0.0000 C.2     1  UNL1       -0.0633
     25 C          11.3782    0.5872    0.0000 C.3     1  UNL1       -0.0486
     26 C           9.5408    0.5512    0.0000 C.3     1  UNL1       -0.0052
     27 C          14.0062    4.2012    0.0000 C.3     1  UNL1       -0.0111
     28 C          14.9143    3.6909    0.0000 C.3     1  UNL1        0.0005
     29 C          11.3823    3.6564    0.0000 C.3     1  UNL1       -0.0306
     30 C          14.0142    2.1319    0.0000 C.3     1  UNL1       -0.0428
     31 C           9.5491    2.7066    0.0000 C.3     1  UNL1       -0.0447
     32 C          14.9183    2.6493    0.0000 C.3     1  UNL1       -0.0439
     33 C          12.8999    1.3962    0.0000 C.3     1  UNL1       -0.0585
     34 C           8.5991    1.0900    0.0000 C.3     1  UNL1        0.0672
     35 C          12.2464    4.1598    0.0000 C.2     1  UNL1       -0.0836
     36 C          10.4820    3.1461    0.0000 C.3     1  UNL1       -0.0590
     37 C           8.6033    2.1750    0.0000 C.3     1  UNL1       -0.0255
     38 C          13.4639    1.7248    0.0000 C.3     1  UNL1       -0.0553
     39 C          13.9770    5.2858    0.0000 C.3     1  UNL1       -0.0406
     40 C          15.8560    4.2298    0.0000 C.3     1  UNL1        0.0616
     41 C          14.9060    5.8463    0.0000 C.3     1  UNL1       -0.0320
     42 C          15.8518    5.3147    0.0000 C.3     1  UNL1       -0.0211
     43 C          10.0475   -0.3110    0.0000 C.3     1  UNL1       -0.0572
     44 C           9.0475   -0.3187    0.0000 C.3     1  UNL1       -0.0572
     45 C          15.7860    3.2009    0.0000 C.3     1  UNL1       -0.0567
     46 C          15.3926    6.7200    0.0000 C.3     1  UNL1       -0.0597
     47 C          14.3927    6.7046    0.0000 C.3     1  UNL1       -0.0597
     48 C           6.8671    1.0900    0.0000 C.3     1  UNL1        0.1892
     49 C           6.0010    0.5900    0.0000 C.3     1  UNL1        0.1407
     50 C           5.1350    1.0900    0.0000 C.3     1  UNL1        0.1149
     51 C           6.0010    2.5900    0.0000 C.3     1  UNL1        0.1859
     52 C           5.1350    2.0900    0.0000 C.3     1  UNL1        0.1202
     53 C           5.1350   -0.9100    0.0000 C.3     1  UNL1        0.1889
     54 C           6.0010    3.5900    0.0000 C.2     1  UNL1        0.3367
     55 C           5.1350   -1.9100    0.0000 C.3     1  UNL1        0.1406
     56 C           4.2690   -2.4100    0.0000 C.3     1  UNL1        0.1144
     57 C           3.4030   -0.9100    0.0000 C.3     1  UNL1        0.1130
     58 C           3.4030   -1.9100    0.0000 C.3     1  UNL1        0.1119
     59 C           2.5369   -0.4100    0.0000 C.3     1  UNL1        0.0730
     60 C           6.0010   -3.4100    0.0000 C.3     1  UNL1        0.1884
     61 C           6.8671   -3.9100    0.0000 C.3     1  UNL1        0.1341
     62 C           6.8671   -4.9100    0.0000 C.3     1  UNL1        0.1140
     63 C           5.1350   -4.9100    0.0000 C.3     1  UNL1        0.0873
     64 C           6.0010   -5.4100    0.0000 C.3     1  UNL1        0.1095
     65 C           4.2690   -5.4100    0.0000 C.3     1  UNL1       -0.0361
     66 H          11.9219    2.9685    0.0000 H       1  UNL1        0.0315
     67 H          10.4789    0.4845    0.0000 H       1  UNL1        0.0312
     68 H          12.4945    0.5388    0.0000 H       1  UNL1        0.0271
     69 H          12.8829    1.2362    0.0000 H       1  UNL1        0.0271
     70 H          10.9827    0.1097    0.0000 H       1  UNL1        0.0268
     71 H          11.7810    0.1158    0.0000 H       1  UNL1        0.0268
     72 H          14.5371    4.5215    0.0000 H       1  UNL1        0.0352
     73 H          11.1680    4.2382    0.0000 H       1  UNL1        0.0310
     74 H          10.7722    3.5464    0.0000 H       1  UNL1        0.0310
     75 H          13.6114    1.6606    0.0000 H       1  UNL1        0.0274
     76 H          14.4097    1.6544    0.0000 H       1  UNL1        0.0274
     77 H           9.9555    3.1748    0.0000 H       1  UNL1        0.0271
     78 H           9.1574    3.1872    0.0000 H       1  UNL1        0.0271
     79 H          15.1296    2.0664    0.0000 H       1  UNL1        0.0272
     80 H          15.5287    2.7577    0.0000 H       1  UNL1        0.0272
     81 H          12.4265    0.9959    0.0000 H       1  UNL1        0.0235
     82 H          13.3002    0.9228    0.0000 H       1  UNL1        0.0235
     83 H          13.3733    1.7966    0.0000 H       1  UNL1        0.0235
     84 H           8.0628    1.4011    0.0000 H       1  UNL1        0.0602
     85 H          12.2440    4.7798    0.0000 H       1  UNL1        0.0572
     86 H          11.1020    3.1437    0.0000 H       1  UNL1        0.0235
     87 H          10.4844    3.7661    0.0000 H       1  UNL1        0.0235
     88 H           9.8620    3.1485    0.0000 H       1  UNL1        0.0235
     89 H           8.3965    2.7595    0.0000 H       1  UNL1        0.0290
     90 H           7.9920    2.0713    0.0000 H       1  UNL1        0.0290
     91 H          12.8821    1.5105    0.0000 H       1  UNL1        0.0238
     92 H          13.6782    1.1430    0.0000 H       1  UNL1        0.0238
     93 H          14.0456    1.9391    0.0000 H       1  UNL1        0.0238
     94 H          13.7522    5.8637    0.0000 H       1  UNL1        0.0276
     95 H          13.3692    5.1633    0.0000 H       1  UNL1        0.0276
     96 H          16.3923    4.5408    0.0000 H       1  UNL1        0.0599
     97 H          16.4631    5.2110    0.0000 H       1  UNL1        0.0295
     98 H          16.0586    5.8992    0.0000 H       1  UNL1        0.0295
     99 H           9.5130   -0.6251    0.0000 H       1  UNL1        0.0236
    100 H          10.3616   -0.8455    0.0000 H       1  UNL1        0.0236
    101 H          10.5820    0.0031    0.0000 H       1  UNL1        0.0236
    102 H           8.5082   -0.0128    0.0000 H       1  UNL1        0.0236
    103 H           8.7417   -0.8580    0.0000 H       1  UNL1        0.0236
    104 H           9.5868   -0.6245    0.0000 H       1  UNL1        0.0236
    105 H          15.4823    2.6604    0.0000 H       1  UNL1        0.0236
    106 H          16.3265    2.8972    0.0000 H       1  UNL1        0.0236
    107 H          16.0898    3.7414    0.0000 H       1  UNL1        0.0236
    108 H          15.9342    6.4183    0.0000 H       1  UNL1        0.0235
    109 H          15.6942    7.2616    0.0000 H       1  UNL1        0.0235
    110 H          14.8509    7.0216    0.0000 H       1  UNL1        0.0235
    111 H          14.9248    7.0228    0.0000 H       1  UNL1        0.0235
    112 H          14.0744    7.2366    0.0000 H       1  UNL1        0.0235
    113 H          13.8606    6.3863    0.0000 H       1  UNL1        0.0235
    114 H          17.2590    4.0398    0.0000 H       1  UNL1        0.2098
    115 H           6.8671    0.4700    0.0000 H       1  UNL1        0.0938
    116 H           5.4641    0.2800    0.0000 H       1  UNL1        0.0675
    117 H           4.5981    1.4000    0.0000 H       1  UNL1        0.0648
    118 H           6.5380    2.9000    0.0000 H       1  UNL1        0.0741
    119 H           5.1350    2.7100    0.0000 H       1  UNL1        0.0652
    120 H           5.1350   -0.2900    0.0000 H       1  UNL1        0.0938
    121 H           3.7320    0.9000    0.0000 H       1  UNL1        0.2100
    122 H           4.2690    3.2100    0.0000 H       1  UNL1        0.2100
    123 H           5.1350   -2.5300    0.0000 H       1  UNL1        0.0675
    124 H           3.7320   -2.7200    0.0000 H       1  UNL1        0.0648
    125 H           3.4030   -0.2900    0.0000 H       1  UNL1        0.0647
    126 H           5.1350    4.7100    0.0000 H       1  UNL1        0.2951
    127 H           3.4030   -2.5300    0.0000 H       1  UNL1        0.0647
    128 H           1.9264   -0.3023    0.0000 H       1  UNL1        0.0584
    129 H           2.3249   -0.9926    0.0000 H       1  UNL1        0.0584
    130 H           6.5380   -3.1000    0.0000 H       1  UNL1        0.0938
    131 H           3.7320   -3.7200    0.0000 H       1  UNL1        0.2100
    132 H           2.0000   -2.1000    0.0000 H       1  UNL1        0.2100
    133 H           7.4040   -4.2200    0.0000 H       1  UNL1        0.0671
    134 H           6.8671   -5.5300    0.0000 H       1  UNL1        0.0648
    135 H           2.0000    0.9000    0.0000 H       1  UNL1        0.2095
    136 H           4.5981   -4.6000    0.0000 H       1  UNL1        0.0621
    137 H           6.5380   -5.7200    0.0000 H       1  UNL1        0.0646
    138 H           8.2700   -3.7200    0.0000 H       1  UNL1        0.2101
    139 H           3.9590   -4.8730    0.0000 H       1  UNL1        0.0255
    140 H           3.7320   -5.7200    0.0000 H       1  UNL1        0.0255
    141 H           4.5790   -5.9469    0.0000 H       1  UNL1        0.0255
    142 H           7.7331   -6.0300    0.0000 H       1  UNL1        0.2100
    143 H           5.4641   -6.7200    0.0000 H       1  UNL1        0.2100
@<TRIPOS>BOND
     1     1    34    1
     2     1    48    1
     3     2    40    1
     4     2   114    1
     5     3    48    1
     6     3    51    1
     7     4    49    1
     8     4    53    1
     9     5    50    1
    10     5   121    1
    11     6    52    1
    12     6   122    1
    13     7    53    1
    14     7    57    1
    15     8    54    1
    16     8   126    1
    17     9    54    2
    18    10    55    1
    19    10    60    1
    20    11    56    1
    21    11   131    1
    22    12    58    1
    23    12   132    1
    24    13    60    1
    25    13    63    1
    26    14    59    1
    27    14   135    1
    28    15    61    1
    29    15   138    1
    30    16    62    1
    31    16   142    1
    32    17    64    1
    33    17   143    1
    34    18    19    1
    35    18    21    1
    36    18    23    1
    37    18    33    1
    38    19    20    1
    39    19    29    1
    40    19    66    1
    41    20    22    1
    42    20    31    1
    43    20    36    1
    44    21    24    1
    45    21    30    1
    46    21    38    1
    47    22    25    1
    48    22    26    1
    49    22    67    1
    50    23    25    1
    51    23    68    1
    52    23    69    1
    53    24    27    1
    54    24    35    2
    55    25    70    1
    56    25    71    1
    57    26    34    1
    58    26    43    1
    59    26    44    1
    60    27    28    1
    61    27    39    1
    62    27    72    1
    63    28    32    1
    64    28    40    1
    65    28    45    1
    66    29    35    1
    67    29    73    1
    68    29    74    1
    69    30    32    1
    70    30    75    1
    71    30    76    1
    72    31    37    1
    73    31    77    1
    74    31    78    1
    75    32    79    1
    76    32    80    1
    77    33    81    1
    78    33    82    1
    79    33    83    1
    80    34    37    1
    81    34    84    1
    82    35    85    1
    83    36    86    1
    84    36    87    1
    85    36    88    1
    86    37    89    1
    87    37    90    1
    88    38    91    1
    89    38    92    1
    90    38    93    1
    91    39    41    1
    92    39    94    1
    93    39    95    1
    94    40    42    1
    95    40    96    1
    96    41    42    1
    97    41    46    1
    98    41    47    1
    99    42    97    1
   100    42    98    1
   101    43    99    1
   102    43   100    1
   103    43   101    1
   104    44   102    1
   105    44   103    1
   106    44   104    1
   107    45   105    1
   108    45   106    1
   109    45   107    1
   110    46   108    1
   111    46   109    1
   112    46   110    1
   113    47   111    1
   114    47   112    1
   115    47   113    1
   116    48    49    1
   117    48   115    1
   118    49    50    1
   119    49   116    1
   120    50    52    1
   121    50   117    1
   122    51    52    1
   123    51    54    1
   124    51   118    1
   125    52   119    1
   126    53    55    1
   127    53   120    1
   128    55    56    1
   129    55   123    1
   130    56    58    1
   131    56   124    1
   132    57    58    1
   133    57    59    1
   134    57   125    1
   135    58   127    1
   136    59   128    1
   137    59   129    1
   138    60    61    1
   139    60   130    1
   140    61    62    1
   141    61   133    1
   142    62    64    1
   143    62   134    1
   144    63    64    1
   145    63    65    1
   146    63   136    1
   147    64   137    1
   148    65   139    1
   149    65   140    1
   150    65   141    1
