@<TRIPOS>MOLECULE
IMPHY000561
 23 25 0 0 0
SMALL
GASTEIGER

@<TRIPOS>ATOM
      1 C           2.5901    2.4922    0.0000 C.ar    1  UNL1       -0.0080
      2 C           3.4602    2.9973    0.0000 C.3     1  UNL1        0.0843
      3 C           2.5901    1.4931    0.0000 C.ar    1  UNL1       -0.0203
      4 C           1.7290    2.9973    0.0000 C.ar    1  UNL1        0.0419
      5 N           4.3258    2.4967    0.0000 N.3     1  UNL1       -0.2685
      6 C           3.4580    3.9965    0.0000 C.3     1  UNL1        0.0468
      7 C           1.7268    0.9991    0.0000 C.ar    1  UNL1        0.0357
      8 C           3.4557    0.9902    0.0000 C.3     1  UNL1        0.0435
      9 C           0.8656    2.4967    0.0000 C.ar    1  UNL1        0.2290
     10 C           4.3258    1.4953    0.0000 C.3     1  UNL1        0.0771
     11 C           5.1914    2.9996    0.0000 C.3     1  UNL1        0.0899
     12 C           4.3236    4.4971    0.0000 C.ar    1  UNL1       -0.0203
     13 C           0.8656    1.4976    0.0000 C.ar    1  UNL1        0.1770
     14 O           0.0000    2.9973    0.0000 O.3     1  UNL1       -0.2833
     15 C           4.3236    5.4962    0.0000 C.ar    1  UNL1       -0.0011
     16 C           5.1914    3.9987    0.0000 C.ar    1  UNL1       -0.0011
     17 O           0.0000    0.9991    0.0000 O.3     1  UNL1       -0.4682
     18 C           5.1892    5.9991    0.0000 C.ar    1  UNL1        0.0366
     19 C           6.0570    4.4994    0.0000 C.ar    1  UNL1        0.0366
     20 C           0.0000    0.0000    0.0000 C.3     1  UNL1        0.2526
     21 C           6.0548    5.4985    0.0000 C.ar    1  UNL1        0.1387
     22 O           6.9204    6.0014    0.0000 O.3     1  UNL1       -0.4714
     23 C           7.7882    5.5007    0.0000 C.3     1  UNL1        0.2525
@<TRIPOS>BOND
     1     1     2    1
     2     1     3   ar
     3     1     4   ar
     4     2     5    1
     5     2     6    1
     6     3     7   ar
     7     3     8    1
     8     4     9   ar
     9     5    10    1
    10     5    11    1
    11     6    12    1
    12     7    13   ar
    13     8    10    1
    14     9    13   ar
    15     9    14    1
    16    12    15   ar
    17    12    16   ar
    18    13    17    1
    19    15    18   ar
    20    16    19   ar
    21    17    20    1
    22    18    21   ar
    23    19    21   ar
    24    21    22    1
    25    22    23    1
