@<TRIPOS>MOLECULE
IMPHY014780
 38 40 0 0 0
SMALL
GASTEIGER

@<TRIPOS>ATOM
      1 O           5.1482    2.1688    0.0000 O.3     1  UNL1       -0.4575
      2 O           4.6840   -2.5270    0.0000 O.2     1  UNL1       -0.2968
      3 O           6.8881    2.5270    0.0000 O.2     1  UNL1       -0.2453
      4 C           4.0984   -0.8500    0.0000 C.3     1  UNL1        0.0299
      5 C           3.1974   -0.4161    0.0000 C.3     1  UNL1       -0.0258
      6 C           2.9749    0.5588    0.0000 C.3     1  UNL1       -0.0368
      7 C           4.9994   -0.4161    0.0000 C.3     1  UNL1       -0.0302
      8 C           5.2219    0.5588    0.0000 C.3     1  UNL1        0.0283
      9 C           2.5124   -1.1364    0.0000 C.3     1  UNL1       -0.0424
     10 C           4.5984    1.3406    0.0000 C.3     1  UNL1        0.1106
     11 C           3.5984    1.3406    0.0000 C.3     1  UNL1       -0.0122
     12 C           3.9624   -1.8347    0.0000 C.2     1  UNL1        0.1395
     13 C           2.9842   -2.0114    0.0000 C.3     1  UNL1        0.0067
     14 C           4.9994   -1.2839    0.0000 C.3     1  UNL1       -0.0525
     15 C           2.0000    0.7813    0.0000 C.3     1  UNL1       -0.0620
     16 C           6.1517    0.9105    0.0000 C.2     1  UNL1        0.0361
     17 C           6.1062    1.9036    0.0000 C.2     1  UNL1        0.3353
     18 C           6.9872    0.3611    0.0000 C.2     1  UNL1       -0.0883
     19 H           2.3778   -0.1911    0.0000 H       1  UNL1        0.0313
     20 H           2.7702    1.1440    0.0000 H       1  UNL1        0.0302
     21 H           5.1374   -1.0206    0.0000 H       1  UNL1        0.0282
     22 H           5.6194   -0.4161    0.0000 H       1  UNL1        0.0282
     23 H           5.8627    0.0004    0.0000 H       1  UNL1        0.0387
     24 H           2.1105   -0.6643    0.0000 H       1  UNL1        0.0272
     25 H           2.0006   -1.4864    0.0000 H       1  UNL1        0.0272
     26 H           4.1966    2.0897    0.0000 H       1  UNL1        0.0740
     27 H           3.7364    1.9451    0.0000 H       1  UNL1        0.0304
     28 H           3.0398    1.6096    0.0000 H       1  UNL1        0.0304
     29 H           2.4105   -2.2467    0.0000 H       1  UNL1        0.0342
     30 H           3.1579   -2.6066    0.0000 H       1  UNL1        0.0342
     31 H           4.7304   -1.8425    0.0000 H       1  UNL1        0.0239
     32 H           5.5580   -1.5529    0.0000 H       1  UNL1        0.0239
     33 H           5.2684   -0.7253    0.0000 H       1  UNL1        0.0239
     34 H           2.1380    1.3858    0.0000 H       1  UNL1        0.0233
     35 H           1.3955    0.9193    0.0000 H       1  UNL1        0.0233
     36 H           1.8620    0.1769    0.0000 H       1  UNL1        0.0233
     37 H           6.9512   -0.2579    0.0000 H       1  UNL1        0.0540
     38 H           7.5412    0.6394    0.0000 H       1  UNL1        0.0540
@<TRIPOS>BOND
     1     1    10    1
     2     1    17    1
     3     2    12    2
     4     3    17    2
     5     4     5    1
     6     4     7    1
     7     4    12    1
     8     4    14    1
     9     5     6    1
    10     5     9    1
    11     5    19    1
    12     6    11    1
    13     6    15    1
    14     6    20    1
    15     7     8    1
    16     7    21    1
    17     7    22    1
    18     8    10    1
    19     8    16    1
    20     8    23    1
    21     9    13    1
    22     9    24    1
    23     9    25    1
    24    10    11    1
    25    10    26    1
    26    11    27    1
    27    11    28    1
    28    12    13    1
    29    13    29    1
    30    13    30    1
    31    14    31    1
    32    14    32    1
    33    14    33    1
    34    15    34    1
    35    15    35    1
    36    15    36    1
    37    16    17    1
    38    16    18    2
    39    18    37    1
    40    18    38    1
