@<TRIPOS>MOLECULE
IMPHY012651
 38 41 0 0 0
SMALL
GASTEIGER

@<TRIPOS>ATOM
      1 O           5.5301   -1.2602    0.0000 O.2     1  UNL1       -0.4618
      2 O           9.9404    0.4351    0.0000 O.3     1  UNL1       -0.4526
      3 O           9.9404    2.0445    0.0000 O.3     1  UNL1       -0.4526
      4 O           3.7817    1.7744    0.0000 O.3     1  UNL1       -0.4942
      5 O           5.5301    1.7398    0.0000 O.2     1  UNL1       -0.2863
      6 O           2.0000   -1.2844    0.0000 O.3     1  UNL1       -0.4949
      7 C           6.3961    0.2398    0.0000 C.ar    1  UNL1        0.0645
      8 C           4.6641    0.2398    0.0000 C.ar    1  UNL1        0.1063
      9 C           7.2622    0.7398    0.0000 C.ar    1  UNL1       -0.0076
     10 C           5.5301    0.7398    0.0000 C.ar    1  UNL1        0.2037
     11 C           4.6641   -0.7602    0.0000 C.ar    1  UNL1        0.1454
     12 C           8.9942    0.7398    0.0000 C.ar    1  UNL1        0.1668
     13 C           8.1282    0.2398    0.0000 C.ar    1  UNL1       -0.0082
     14 C           3.7702    0.7744    0.0000 C.ar    1  UNL1        0.1379
     15 C           8.9942    1.7398    0.0000 C.ar    1  UNL1        0.1663
     16 C           7.2622    1.7398    0.0000 C.ar    1  UNL1       -0.0501
     17 C           6.3961   -0.7602    0.0000 C.ar    1  UNL1        0.1038
     18 C           3.7702   -1.2949    0.0000 C.ar    1  UNL1        0.0233
     19 C           8.1282    2.2398    0.0000 C.ar    1  UNL1       -0.0156
     20 C           2.8641    0.2606    0.0000 C.ar    1  UNL1        0.0227
     21 C           2.8641   -0.7810    0.0000 C.ar    1  UNL1        0.1271
     22 C          10.5241    1.2398    0.0000 C.3     1  UNL1        0.2332
     23 C           2.9215    2.2844    0.0000 C.3     1  UNL1        0.0788
     24 C           2.0038   -2.2844    0.0000 C.3     1  UNL1        0.0788
     25 H           8.1282   -0.3802    0.0000 H       1  UNL1        0.0661
     26 H           6.7252    2.0498    0.0000 H       1  UNL1        0.0625
     27 H           6.9331   -1.0702    0.0000 H       1  UNL1        0.1037
     28 H           3.7773   -1.9148    0.0000 H       1  UNL1        0.0691
     29 H           8.1282    2.8598    0.0000 H       1  UNL1        0.0655
     30 H           2.3284    0.5727    0.0000 H       1  UNL1        0.0691
     31 H          10.9849    0.8251    0.0000 H       1  UNL1        0.1166
     32 H          10.9849    1.6545    0.0000 H       1  UNL1        0.1166
     33 H           3.2377    2.8177    0.0000 H       1  UNL1        0.0660
     34 H           2.3882    2.6006    0.0000 H       1  UNL1        0.0660
     35 H           2.6054    1.7510    0.0000 H       1  UNL1        0.0660
     36 H           1.3839   -2.2868    0.0000 H       1  UNL1        0.0660
     37 H           2.0062   -2.9044    0.0000 H       1  UNL1        0.0660
     38 H           2.6238   -2.2820    0.0000 H       1  UNL1        0.0660
@<TRIPOS>BOND
     1     1    11   ar
     2     1    17   ar
     3     2    12    1
     4     2    22    1
     5     3    15    1
     6     3    22    1
     7     4    14    1
     8     4    23    1
     9     5    10    2
    10     6    21    1
    11     6    24    1
    12     7     9    1
    13     7    10   ar
    14     7    17   ar
    15     8    10   ar
    16     8    11   ar
    17     8    14   ar
    18     9    13   ar
    19     9    16   ar
    20    11    18   ar
    21    12    13   ar
    22    12    15   ar
    23    13    25    1
    24    14    20   ar
    25    15    19   ar
    26    16    19   ar
    27    16    26    1
    28    17    27    1
    29    18    21   ar
    30    18    28    1
    31    19    29    1
    32    20    21   ar
    33    20    30    1
    34    22    31    1
    35    22    32    1
    36    23    33    1
    37    23    34    1
    38    23    35    1
    39    24    36    1
    40    24    37    1
    41    24    38    1
