@<TRIPOS>MOLECULE
IMPHY007664
 88 94 0 0 0
SMALL
GASTEIGER

@<TRIPOS>ATOM
      1 O           3.2704   -2.0858    0.0000 O.3     1  UNL1       -0.3634
      2 O           6.0538    1.7374    0.0000 O.3     1  UNL1       -0.3403
      3 O           2.5357   -1.3077    0.0000 O.3     1  UNL1       -0.3911
      4 O           7.0442   -2.8996    0.0000 O.3     1  UNL1       -0.3836
      5 O           6.1340   -0.0618    0.0000 O.3     1  UNL1       -0.3910
      6 O           7.0120   -0.8082    0.0000 O.2     1  UNL1       -0.2943
      7 O           4.5357    2.7064    0.0000 O.3     1  UNL1       -0.4607
      8 O           5.1877    3.2374    0.0000 O.3     1  UNL1       -0.4342
      9 O           7.0778   -5.5695    0.0000 O.2     1  UNL1       -0.4708
     10 O           2.8885    3.2417    0.0000 O.2     1  UNL1       -0.2512
     11 O           6.9198    3.2374    0.0000 O.2     1  UNL1       -0.2505
     12 C           4.2974   -2.4169    0.0000 C.3     1  UNL1        0.1129
     13 C           4.3058   -1.3319    0.0000 C.3     1  UNL1        0.0362
     14 C           5.2370   -2.9594    0.0000 C.3     1  UNL1        0.0398
     15 C           3.4977   -3.1406    0.0000 C.3     1  UNL1        0.0903
     16 C           5.2038   -0.8041    0.0000 C.3     1  UNL1        0.0409
     17 C           5.1877    0.2374    0.0000 C.3     1  UNL1        0.0342
     18 C           5.0100   -4.0138    0.0000 C.3     1  UNL1        0.0004
     19 C           4.3217    0.7374    0.0000 C.3     1  UNL1       -0.0134
     20 C           3.4037   -0.8111    0.0000 C.3     1  UNL1        0.0643
     21 C           3.9373   -4.1256    0.0000 C.3     1  UNL1       -0.0162
     22 C           6.1725   -2.4096    0.0000 C.3     1  UNL1        0.1219
     23 C           3.4117    0.2305    0.0000 C.3     1  UNL1       -0.0219
     24 C           6.1557   -1.3248    0.0000 C.2     1  UNL1        0.1666
     25 C           4.3217    1.7374    0.0000 C.3     1  UNL1        0.0708
     26 C           3.3223   -1.5131    0.0000 C.3     1  UNL1       -0.0538
     27 C           5.3908    0.6073    0.0000 C.3     1  UNL1        0.0673
     28 C           6.1031   -3.4594    0.0000 C.3     1  UNL1       -0.0535
     29 C           6.0538    0.7374    0.0000 C.3     1  UNL1        0.0606
     30 C           4.7436    1.7283    0.0000 C.3     1  UNL1        0.1167
     31 C           5.4745    1.4029    0.0000 C.3     1  UNL1        0.0118
     32 C           5.1877    2.2374    0.0000 C.3     1  UNL1        0.2137
     33 C           5.6779   -4.7581    0.0000 C.ar    1  UNL1       -0.0058
     34 C           3.4557    2.2374    0.0000 C.3     1  UNL1       -0.0501
     35 C           5.4683   -5.7359    0.0000 C.ar    1  UNL1       -0.0205
     36 C           6.6726   -4.6553    0.0000 C.ar    1  UNL1        0.0951
     37 C           6.3334   -6.2374    0.0000 C.ar    1  UNL1        0.0919
     38 C           3.8666    3.4496    0.0000 C.2     1  UNL1        0.3042
     39 C           6.0538    3.7374    0.0000 C.2     1  UNL1        0.3121
     40 C           6.0538    4.7374    0.0000 C.3     1  UNL1        0.0535
     41 C           4.1756    4.4006    0.0000 C.3     1  UNL1        0.0332
     42 C           6.9198    5.2374    0.0000 C.3     1  UNL1       -0.0432
     43 C           5.1877    5.2374    0.0000 C.3     1  UNL1       -0.0523
     44 C           6.9198    6.2374    0.0000 C.3     1  UNL1       -0.0645
     45 H           2.6898   -3.4048    0.0000 H       1  UNL1        0.0625
     46 H           5.9316   -0.3650    0.0000 H       1  UNL1        0.0392
     47 H           4.7871   -4.5923    0.0000 H       1  UNL1        0.0358
     48 H           3.5856    1.1624    0.0000 H       1  UNL1        0.0317
     49 H           2.8686   -0.4980    0.0000 H       1  UNL1        0.0600
     50 H           3.3477   -4.3174    0.0000 H       1  UNL1        0.0297
     51 H           4.0660   -4.7321    0.0000 H       1  UNL1        0.0297
     52 H           6.7052   -2.0924    0.0000 H       1  UNL1        0.0679
     53 H           3.2072    0.8158    0.0000 H       1  UNL1        0.0293
     54 H           2.8001    0.1291    0.0000 H       1  UNL1        0.0293
     55 H           3.2100   -0.9034    0.0000 H       1  UNL1        0.0237
     56 H           2.7126   -1.6254    0.0000 H       1  UNL1        0.0237
     57 H           3.4347   -2.1228    0.0000 H       1  UNL1        0.0237
     58 H           5.9696    0.8295    0.0000 H       1  UNL1        0.0601
     59 H           5.7931   -3.9963    0.0000 H       1  UNL1        0.0237
     60 H           6.6400   -3.7694    0.0000 H       1  UNL1        0.0237
     61 H           6.4131   -2.9224    0.0000 H       1  UNL1        0.0237
     62 H           6.2658    0.1548    0.0000 H       1  UNL1        0.0568
     63 H           6.6644    0.8450    0.0000 H       1  UNL1        0.0568
     64 H           5.2255    2.1185    0.0000 H       1  UNL1        0.0742
     65 H           6.0809    1.2740    0.0000 H       1  UNL1        0.0326
     66 H           5.6660    1.9926    0.0000 H       1  UNL1        0.0326
     67 H           4.6508    2.5474    0.0000 H       1  UNL1        0.1064
     68 H           3.7657    2.7743    0.0000 H       1  UNL1        0.0238
     69 H           2.9188    2.5474    0.0000 H       1  UNL1        0.0238
     70 H           3.1457    1.7004    0.0000 H       1  UNL1        0.0238
     71 H           2.0000   -0.9957    0.0000 H       1  UNL1        0.2098
     72 H           7.5775   -2.5834    0.0000 H       1  UNL1        0.2104
     73 H           6.7236    0.1297    0.0000 H       1  UNL1        0.2098
     74 H           4.9014   -5.9871    0.0000 H       1  UNL1        0.0652
     75 H           6.9835   -4.1189    0.0000 H       1  UNL1        0.1032
     76 H           6.3972   -6.8541    0.0000 H       1  UNL1        0.1029
     77 H           6.0538    5.3574    0.0000 H       1  UNL1        0.0410
     78 H           4.7652    4.2091    0.0000 H       1  UNL1        0.0342
     79 H           4.3672    4.9903    0.0000 H       1  UNL1        0.0342
     80 H           3.5859    4.5922    0.0000 H       1  UNL1        0.0342
     81 H           7.1318    4.6548    0.0000 H       1  UNL1        0.0270
     82 H           7.5304    5.3450    0.0000 H       1  UNL1        0.0270
     83 H           5.4977    5.7743    0.0000 H       1  UNL1        0.0238
     84 H           4.6508    5.5474    0.0000 H       1  UNL1        0.0238
     85 H           4.8777    4.7004    0.0000 H       1  UNL1        0.0238
     86 H           7.5398    6.2374    0.0000 H       1  UNL1        0.0230
     87 H           6.9198    6.8574    0.0000 H       1  UNL1        0.0230
     88 H           6.2998    6.2374    0.0000 H       1  UNL1        0.0230
@<TRIPOS>BOND
     1    12     1    1
     2     1    15    1
     3     2    29    1
     4     2    32    1
     5    20     3    1
     6     3    71    1
     7    22     4    1
     8     4    72    1
     9    27     5    1
    10     5    73    1
    11     6    24    2
    12    30     7    1
    13     7    38    1
    14    32     8    1
    15     8    39    1
    16     9    36   ar
    17     9    37   ar
    18    10    38    2
    19    11    39    2
    20    12    13    1
    21    12    14    1
    22    12    15    1
    23    13    16    1
    24    13    20    1
    25    13    26    1
    26    14    18    1
    27    14    22    1
    28    14    28    1
    29    15    21    1
    30    15    45    1
    31    16    17    1
    32    16    24    1
    33    16    46    1
    34    17    19    1
    35    17    27    1
    36    17    29    1
    37    18    21    1
    38    18    33    1
    39    18    47    1
    40    19    23    1
    41    19    25    1
    42    19    48    1
    43    20    23    1
    44    20    49    1
    45    21    50    1
    46    21    51    1
    47    22    24    1
    48    22    52    1
    49    23    53    1
    50    23    54    1
    51    25    30    1
    52    25    32    1
    53    25    34    1
    54    26    55    1
    55    26    56    1
    56    26    57    1
    57    27    31    1
    58    27    58    1
    59    28    59    1
    60    28    60    1
    61    28    61    1
    62    29    62    1
    63    29    63    1
    64    30    31    1
    65    30    64    1
    66    31    65    1
    67    31    66    1
    68    32    67    1
    69    33    35   ar
    70    33    36   ar
    71    34    68    1
    72    34    69    1
    73    34    70    1
    74    35    37   ar
    75    35    74    1
    76    36    75    1
    77    37    76    1
    78    38    41    1
    79    39    40    1
    80    40    42    1
    81    40    43    1
    82    40    77    1
    83    41    78    1
    84    41    79    1
    85    41    80    1
    86    42    44    1
    87    42    81    1
    88    42    82    1
    89    43    83    1
    90    43    84    1
    91    43    85    1
    92    44    86    1
    93    44    87    1
    94    44    88    1
