@<TRIPOS>MOLECULE
IMPHY012820
 28 27 0 0 0
SMALL
GASTEIGER

@<TRIPOS>ATOM
      1 O           6.3301    0.0000    0.0000 O.3     1  UNL1       -0.4625
      2 O           8.9282   -0.5000    0.0000 O.3     1  UNL1       -0.3809
      3 O           7.1962   -1.5000    0.0000 O.2     1  UNL1       -0.2479
      4 C           4.5981    0.0000    0.0000 C.3     1  UNL1       -0.0003
      5 C           5.4641   -0.5000    0.0000 C.3     1  UNL1        0.0959
      6 C           3.7320   -0.5000    0.0000 C.2     1  UNL1       -0.0847
      7 C           8.0622    0.0000    0.0000 C.3     1  UNL1        0.1488
      8 C           2.8660    1.0000    0.0000 C.3     1  UNL1       -0.0376
      9 C           2.8660   -0.0000    0.0000 C.2     1  UNL1       -0.0881
     10 C           7.1962   -0.5000    0.0000 C.2     1  UNL1        0.3357
     11 C           8.0622    1.0000    0.0000 C.3     1  UNL1       -0.0285
     12 C           2.0000    1.5000    0.0000 C.3     1  UNL1       -0.0618
     13 H           4.9966    0.4749    0.0000 H       1  UNL1        0.0340
     14 H           4.1996    0.4749    0.0000 H       1  UNL1        0.0340
     15 H           5.0656   -0.9749    0.0000 H       1  UNL1        0.0700
     16 H           5.8626   -0.9749    0.0000 H       1  UNL1        0.0700
     17 H           8.0622   -0.6200    0.0000 H       1  UNL1        0.0707
     18 H           3.7320   -1.1200    0.0000 H       1  UNL1        0.0570
     19 H           3.4766    0.8923    0.0000 H       1  UNL1        0.0305
     20 H           3.0781    1.5826    0.0000 H       1  UNL1        0.0305
     21 H           2.3291   -0.3100    0.0000 H       1  UNL1        0.0569
     22 H           8.6822    1.0000    0.0000 H       1  UNL1        0.0260
     23 H           8.0622    1.6200    0.0000 H       1  UNL1        0.0260
     24 H           7.4422    1.0000    0.0000 H       1  UNL1        0.0260
     25 H           2.3100    2.0369    0.0000 H       1  UNL1        0.0233
     26 H           1.4631    1.8100    0.0000 H       1  UNL1        0.0233
     27 H           1.6900    0.9631    0.0000 H       1  UNL1        0.0233
     28 H           9.4651   -0.1900    0.0000 H       1  UNL1        0.2105
@<TRIPOS>BOND
     1     1     5    1
     2     1    10    1
     3     2     7    1
     4     2    28    1
     5     3    10    2
     6     4     5    1
     7     4     6    1
     8     4    13    1
     9     4    14    1
    10     5    15    1
    11     5    16    1
    12     6     9    2
    13     6    18    1
    14     7    10    1
    15     7    11    1
    16     7    17    1
    17     8     9    1
    18     8    12    1
    19     8    19    1
    20     8    20    1
    21     9    21    1
    22    11    22    1
    23    11    23    1
    24    11    24    1
    25    12    25    1
    26    12    26    1
    27    12    27    1
