@<TRIPOS>MOLECULE
IMPHY009018
 85 89 0 0 0
SMALL
GASTEIGER

@<TRIPOS>ATOM
      1 O           2.5357   -2.3338    0.0000 O.3     1  UNL1       -0.3912
      2 O           4.3500   -4.1117    0.0000 O.3     1  UNL1       -0.3944
      3 O          11.4608    0.7527    0.0000 O.3     1  UNL1       -0.4802
      4 O          10.6064   -0.7540    0.0000 O.2     1  UNL1       -0.2504
      5 O          11.2187    3.7781    0.0000 O.3     1  UNL1       -0.4675
      6 O           9.7088    4.6267    0.0000 O.2     1  UNL1       -0.2502
      7 C           7.0628   -0.7815    0.0000 C.3     1  UNL1       -0.0194
      8 C           6.1968   -0.2815    0.0000 C.3     1  UNL1       -0.0257
      9 C           5.2868   -0.7884    0.0000 C.3     1  UNL1       -0.0249
     10 C           7.9288   -0.2815    0.0000 C.3     1  UNL1       -0.0051
     11 C           5.2787   -1.8300    0.0000 C.3     1  UNL1       -0.0255
     12 C           7.0789   -1.8230    0.0000 C.3     1  UNL1       -0.0463
     13 C           6.1808   -2.3508    0.0000 C.3     1  UNL1       -0.0485
     14 C           4.3433   -2.3797    0.0000 C.3     1  UNL1        0.0203
     15 C           7.9288    0.7185    0.0000 C.2     1  UNL1       -0.0629
     16 C           6.1968    0.7185    0.0000 C.3     1  UNL1       -0.0306
     17 C           8.8228    1.2532    0.0000 C.3     1  UNL1       -0.0026
     18 C           4.3599   -0.2243    0.0000 C.3     1  UNL1       -0.0447
     19 C           8.8228   -0.8162    0.0000 C.3     1  UNL1       -0.0424
     20 C           9.7288    0.7393    0.0000 C.3     1  UNL1        0.0741
     21 C           7.7056   -1.5476    0.0000 C.3     1  UNL1       -0.0585
     22 C           9.7288   -0.3023    0.0000 C.3     1  UNL1       -0.0359
     23 C           3.4037   -1.8372    0.0000 C.3     1  UNL1        0.0630
     24 C           5.2945    0.2116    0.0000 C.3     1  UNL1       -0.0590
     25 C           7.0628    1.2185    0.0000 C.2     1  UNL1       -0.0836
     26 C           3.4120   -0.7522    0.0000 C.3     1  UNL1       -0.0257
     27 C           8.2709   -1.2212    0.0000 C.3     1  UNL1       -0.0553
     28 C           8.7977    2.3379    0.0000 C.3     1  UNL1       -0.0299
     29 C          10.6726    1.2746    0.0000 C.3     1  UNL1       -0.0357
     30 C           9.7288    2.8948    0.0000 C.3     1  UNL1        0.0656
     31 C           3.8467   -3.2476    0.0000 C.3     1  UNL1        0.0522
     32 C           4.8466   -3.2438    0.0000 C.3     1  UNL1       -0.0548
     33 C          10.6726    2.3595    0.0000 C.3     1  UNL1       -0.0365
     34 C          10.5987    0.2460    0.0000 C.2     1  UNL1        0.3115
     35 C           9.2188    3.7550    0.0000 C.3     1  UNL1       -0.0494
     36 C          10.2188    3.7665    0.0000 C.2     1  UNL1        0.3128
     37 C          11.7087    4.6498    0.0000 C.3     1  UNL1        0.0817
     38 H           6.9329    0.1435    0.0000 H       1  UNL1        0.0315
     39 H           5.2820   -2.6800    0.0000 H       1  UNL1        0.0313
     40 H           7.2969   -2.4034    0.0000 H       1  UNL1        0.0271
     41 H           7.6880   -1.7075    0.0000 H       1  UNL1        0.0271
     42 H           5.7835   -2.8267    0.0000 H       1  UNL1        0.0268
     43 H           6.5818   -2.8237    0.0000 H       1  UNL1        0.0268
     44 H           5.9847    1.3011    0.0000 H       1  UNL1        0.0310
     45 H           5.5862    0.6108    0.0000 H       1  UNL1        0.0310
     46 H           9.5522    1.6894    0.0000 H       1  UNL1        0.0357
     47 H           4.7681    0.2424    0.0000 H       1  UNL1        0.0271
     48 H           3.9700    0.2578    0.0000 H       1  UNL1        0.0271
     49 H           8.4182   -1.2860    0.0000 H       1  UNL1        0.0274
     50 H           9.2164   -1.2952    0.0000 H       1  UNL1        0.0274
     51 H           7.2306   -1.9461    0.0000 H       1  UNL1        0.0235
     52 H           8.1041   -2.0225    0.0000 H       1  UNL1        0.0235
     53 H           8.1805   -1.1490    0.0000 H       1  UNL1        0.0235
     54 H           9.9379   -0.8860    0.0000 H       1  UNL1        0.0276
     55 H          10.3397   -0.1962    0.0000 H       1  UNL1        0.0276
     56 H           3.4025   -2.4572    0.0000 H       1  UNL1        0.0599
     57 H           5.9145    0.2068    0.0000 H       1  UNL1        0.0235
     58 H           5.2993    0.8316    0.0000 H       1  UNL1        0.0235
     59 H           4.6745    0.2164    0.0000 H       1  UNL1        0.0235
     60 H           7.0628    1.8385    0.0000 H       1  UNL1        0.0572
     61 H           3.2075   -0.1669    0.0000 H       1  UNL1        0.0290
     62 H           2.8004   -0.8536    0.0000 H       1  UNL1        0.0290
     63 H           7.6884   -1.4333    0.0000 H       1  UNL1        0.0238
     64 H           8.4830   -1.8038    0.0000 H       1  UNL1        0.0238
     65 H           8.8535   -1.0090    0.0000 H       1  UNL1        0.0238
     66 H           8.5752    2.9166    0.0000 H       1  UNL1        0.0282
     67 H           8.1894    2.2177    0.0000 H       1  UNL1        0.0282
     68 H          10.8817    0.6909    0.0000 H       1  UNL1        0.0276
     69 H          11.2835    1.3806    0.0000 H       1  UNL1        0.0276
     70 H           3.3702   -2.8509    0.0000 H       1  UNL1        0.0563
     71 H           3.3732   -3.6480    0.0000 H       1  UNL1        0.0563
     72 H           4.3109   -3.5558    0.0000 H       1  UNL1        0.0237
     73 H           5.1587   -3.7795    0.0000 H       1  UNL1        0.0237
     74 H           5.3824   -2.9317    0.0000 H       1  UNL1        0.0237
     75 H          11.2835    2.2534    0.0000 H       1  UNL1        0.0276
     76 H          10.8817    2.9432    0.0000 H       1  UNL1        0.0276
     77 H           2.0000   -2.0218    0.0000 H       1  UNL1        0.2098
     78 H           9.7522    4.0712    0.0000 H       1  UNL1        0.0240
     79 H           8.9027    4.2883    0.0000 H       1  UNL1        0.0240
     80 H           8.6855    3.4388    0.0000 H       1  UNL1        0.0240
     81 H           4.0421   -4.6498    0.0000 H       1  UNL1        0.2094
     82 H          12.0001    0.4468    0.0000 H       1  UNL1        0.2951
     83 H          12.2492    4.3461    0.0000 H       1  UNL1        0.0661
     84 H          12.0124    5.1903    0.0000 H       1  UNL1        0.0661
     85 H          11.1682    4.9536    0.0000 H       1  UNL1        0.0661
@<TRIPOS>BOND
     1    23     1    1
     2     1    77    1
     3     2    31    1
     4     2    81    1
     5     3    34    1
     6     3    82    1
     7     4    34    2
     8     5    36    1
     9     5    37    1
    10     6    36    2
    11     7     8    1
    12     7    10    1
    13     7    12    1
    14     7    21    1
    15     8     9    1
    16     8    16    1
    17     8    38    1
    18     9    11    1
    19     9    18    1
    20     9    24    1
    21    10    15    1
    22    10    19    1
    23    10    27    1
    24    11    13    1
    25    11    14    1
    26    11    39    1
    27    12    13    1
    28    12    40    1
    29    12    41    1
    30    13    42    1
    31    13    43    1
    32    14    23    1
    33    14    31    1
    34    14    32    1
    35    15    17    1
    36    15    25    2
    37    16    25    1
    38    16    44    1
    39    16    45    1
    40    17    20    1
    41    17    28    1
    42    17    46    1
    43    18    26    1
    44    18    47    1
    45    18    48    1
    46    19    22    1
    47    19    49    1
    48    19    50    1
    49    20    22    1
    50    20    29    1
    51    20    34    1
    52    21    51    1
    53    21    52    1
    54    21    53    1
    55    22    54    1
    56    22    55    1
    57    23    26    1
    58    23    56    1
    59    24    57    1
    60    24    58    1
    61    24    59    1
    62    25    60    1
    63    26    61    1
    64    26    62    1
    65    27    63    1
    66    27    64    1
    67    27    65    1
    68    28    30    1
    69    28    66    1
    70    28    67    1
    71    29    33    1
    72    29    68    1
    73    29    69    1
    74    30    33    1
    75    30    35    1
    76    30    36    1
    77    31    70    1
    78    31    71    1
    79    32    72    1
    80    32    73    1
    81    32    74    1
    82    33    75    1
    83    33    76    1
    84    35    78    1
    85    35    79    1
    86    35    80    1
    87    37    83    1
    88    37    84    1
    89    37    85    1
