@<TRIPOS>MOLECULE
IMPHY003489
 26 25 0 0 0
SMALL
GASTEIGER

@<TRIPOS>ATOM
      1 O           4.5981   -1.5000    0.0000 O.2     1  UNL1       -0.2758
      2 O           6.3301    1.5000    0.0000 O.3     1  UNL1       -0.4795
      3 OXT         5.4641    3.0000    0.0000 O.2     1  UNL1       -0.2493
      4 N           2.8660   -1.5000    0.0000 N.am    1  UNL1       -0.3156
      5 N           3.7320    2.0000    0.0000 N.3     1  UNL1       -0.3184
      6 C           4.5981    0.5000    0.0000 C.3     1  UNL1       -0.0191
      7 CA          4.5981    1.5000    0.0000 C.3     1  UNL1        0.1037
      8 C           3.7320    0.0000    0.0000 C.3     1  UNL1        0.0259
      9 C           3.7320   -1.0000    0.0000 C.2     1  UNL1        0.2131
     10 C           5.4641    2.0000    0.0000 C.2     1  UNL1        0.3217
     11 C           2.8660   -2.5000    0.0000 C.3     1  UNL1        0.0088
     12 C           2.0000   -3.0000    0.0000 C.3     1  UNL1       -0.0495
     13 H           4.8101   -0.0826    0.0000 H       1  UNL1        0.0290
     14 H           5.2087    0.6077    0.0000 H       1  UNL1        0.0290
     15 HA          4.5981    2.1200    0.0000 H       1  UNL1        0.0574
     16 H           3.5200    0.5826    0.0000 H       1  UNL1        0.0359
     17 H           3.1215   -0.1077    0.0000 H       1  UNL1        0.0359
     18 H           2.3291   -1.1900    0.0000 H       1  UNL1        0.1487
     19 H1          3.1951    1.6900    0.0000 H       1  UNL1        0.1190
     20 H2          3.7320    2.6200    0.0000 H       1  UNL1        0.1190
     21 H           3.0781   -3.0826    0.0000 H       1  UNL1        0.0459
     22 H           3.4766   -2.3923    0.0000 H       1  UNL1        0.0459
     23 H           1.6900   -2.4631    0.0000 H       1  UNL1        0.0245
     24 H           1.4631   -3.3100    0.0000 H       1  UNL1        0.0245
     25 H           2.3100   -3.5369    0.0000 H       1  UNL1        0.0245
     26 H           6.8671    1.8100    0.0000 H       1  UNL1        0.2951
@<TRIPOS>BOND
     1     1     9    2
     2     2    10    1
     3     2    26    1
     4     3    10    2
     5     4     9   am
     6     4    11    1
     7     4    18    1
     8     7     5    1
     9     5    19    1
    10     5    20    1
    11     6     7    1
    12     6     8    1
    13     6    13    1
    14     6    14    1
    15     7    10    1
    16     7    15    1
    17     8     9    1
    18     8    16    1
    19     8    17    1
    20    11    12    1
    21    11    21    1
    22    11    22    1
    23    12    23    1
    24    12    24    1
    25    12    25    1
