@<TRIPOS>MOLECULE
IMPHY009470
 41 43 0 0 0
SMALL
GASTEIGER

@<TRIPOS>ATOM
      1 O           7.9575    0.4812    0.0000 O.3     1  UNL1       -0.3819
      2 O           4.2294   -0.4970    0.0000 O.3     1  UNL1       -0.3853
      3 O           7.2852    2.5503    0.0000 O.2     1  UNL1       -0.2727
      4 N           5.6974    1.7412    0.0000 N.am    1  UNL1       -0.2959
      5 C           5.3884    0.7902    0.0000 C.3     1  UNL1        0.0654
      6 C           6.1974    0.2024    0.0000 C.3     1  UNL1        0.0400
      7 C           7.0064    0.7902    0.0000 C.3     1  UNL1        0.1396
      8 C           4.4374    0.4812    0.0000 C.3     1  UNL1        0.0993
      9 C           6.6974    1.7412    0.0000 C.2     1  UNL1        0.2450
     10 C           6.1974   -0.7976    0.0000 C.ar    1  UNL1       -0.0395
     11 C           5.1096    2.5503    0.0000 C.3     1  UNL1        0.0037
     12 C           3.6942    1.1503    0.0000 C.ar    1  UNL1       -0.0174
     13 C           5.3314   -1.2976    0.0000 C.ar    1  UNL1       -0.0582
     14 C           7.0634   -1.2976    0.0000 C.ar    1  UNL1       -0.0582
     15 C           3.9021    2.1285    0.0000 C.ar    1  UNL1       -0.0561
     16 C           2.7431    0.8413    0.0000 C.ar    1  UNL1       -0.0561
     17 C           5.3314   -2.2976    0.0000 C.ar    1  UNL1       -0.0615
     18 C           7.0634   -2.2976    0.0000 C.ar    1  UNL1       -0.0615
     19 C           6.1974   -2.7976    0.0000 C.ar    1  UNL1       -0.0617
     20 C           3.1590    2.7976    0.0000 C.ar    1  UNL1       -0.0614
     21 C           2.0000    1.5104    0.0000 C.ar    1  UNL1       -0.0614
     22 C           2.2079    2.4886    0.0000 C.ar    1  UNL1       -0.0617
     23 H           4.7874    1.3912    0.0000 H       1  UNL1        0.0536
     24 H           6.7498   -0.0791    0.0000 H       1  UNL1        0.0398
     25 H           7.4448    1.2286    0.0000 H       1  UNL1        0.0697
     26 H           3.8477    0.2896    0.0000 H       1  UNL1        0.0662
     27 H           5.6112    2.9147    0.0000 H       1  UNL1        0.0429
     28 H           4.7452    3.0519    0.0000 H       1  UNL1        0.0429
     29 H           4.6080    2.1858    0.0000 H       1  UNL1        0.0429
     30 H           8.4182    0.8960    0.0000 H       1  UNL1        0.2105
     31 H           4.7945   -0.9876    0.0000 H       1  UNL1        0.0620
     32 H           7.6004   -0.9876    0.0000 H       1  UNL1        0.0620
     33 H           3.6398   -0.6886    0.0000 H       1  UNL1        0.2103
     34 H           4.4918    2.3200    0.0000 H       1  UNL1        0.0621
     35 H           2.6142    0.2348    0.0000 H       1  UNL1        0.0621
     36 H           4.7945   -2.6076    0.0000 H       1  UNL1        0.0618
     37 H           7.6004   -2.6076    0.0000 H       1  UNL1        0.0618
     38 H           6.1974   -3.4176    0.0000 H       1  UNL1        0.0618
     39 H           3.2879    3.4040    0.0000 H       1  UNL1        0.0618
     40 H           1.4103    1.3188    0.0000 H       1  UNL1        0.0618
     41 H           1.7472    2.9034    0.0000 H       1  UNL1        0.0618
@<TRIPOS>BOND
     1     7     1    1
     2     1    30    1
     3     8     2    1
     4     2    33    1
     5     3     9    2
     6     4     5    1
     7     4     9   am
     8     4    11    1
     9     5     6    1
    10     5     8    1
    11     5    23    1
    12     6     7    1
    13     6    10    1
    14     6    24    1
    15     7     9    1
    16     7    25    1
    17     8    12    1
    18     8    26    1
    19    10    13   ar
    20    10    14   ar
    21    11    27    1
    22    11    28    1
    23    11    29    1
    24    12    15   ar
    25    12    16   ar
    26    13    17   ar
    27    13    31    1
    28    14    18   ar
    29    14    32    1
    30    15    20   ar
    31    15    34    1
    32    16    21   ar
    33    16    35    1
    34    17    19   ar
    35    17    36    1
    36    18    19   ar
    37    18    37    1
    38    19    38    1
    39    20    22   ar
    40    20    39    1
    41    21    22   ar
    42    21    40    1
    43    22    41    1
