@<TRIPOS>MOLECULE
IMPHY017544
 37 38 0 0 0
SMALL
GASTEIGER

@<TRIPOS>ATOM
      1 C           3.7320   -0.2500    0.0000 C.3     1  UNL1       -0.0086
      2 C           2.8660   -0.7500    0.0000 C.3     1  UNL1       -0.0134
      3 C           4.6260   -0.7847    0.0000 C.3     1  UNL1       -0.0396
      4 C           2.8660   -1.7500    0.0000 C.3     1  UNL1       -0.0399
      5 C           3.7320    0.7500    0.0000 C.2     1  UNL1       -0.0411
      6 C           5.5321   -0.2708    0.0000 C.3     1  UNL1       -0.0249
      7 C           2.0000   -0.2500    0.0000 C.2     1  UNL1       -0.0798
      8 C           2.8660    1.2500    0.0000 C.2     1  UNL1       -0.0473
      9 C           4.6260    1.2847    0.0000 C.2     1  UNL1       -0.0617
     10 C           5.5321    0.7708    0.0000 C.2     1  UNL1       -0.0809
     11 C           2.0000    0.7500    0.0000 C.2     1  UNL1       -0.0622
     12 C           2.0000   -2.2500    0.0000 C.3     1  UNL1       -0.0621
     13 C           3.7320   -2.2500    0.0000 C.3     1  UNL1       -0.0621
     14 C           6.3961   -0.7742    0.0000 C.3     1  UNL1       -0.0589
     15 C           2.8660    2.2500    0.0000 C.3     1  UNL1       -0.0395
     16 H           3.7273   -0.8700    0.0000 H       1  UNL1        0.0355
     17 H           2.3291   -1.0600    0.0000 H       1  UNL1        0.0351
     18 H           4.2214   -1.2544    0.0000 H       1  UNL1        0.0277
     19 H           5.0196   -1.2637    0.0000 H       1  UNL1        0.0277
     20 H           2.8660   -2.3700    0.0000 H       1  UNL1        0.0301
     21 H           5.5285   -0.8908    0.0000 H       1  UNL1        0.0341
     22 H           1.4631   -0.5600    0.0000 H       1  UNL1        0.0575
     23 H           4.6188    1.9046    0.0000 H       1  UNL1        0.0617
     24 H           6.0678    1.0829    0.0000 H       1  UNL1        0.0575
     25 H           1.4631    1.0600    0.0000 H       1  UNL1        0.0617
     26 H           1.6900   -1.7131    0.0000 H       1  UNL1        0.0233
     27 H           1.4631   -2.5600    0.0000 H       1  UNL1        0.0233
     28 H           2.3100   -2.7869    0.0000 H       1  UNL1        0.0233
     29 H           3.4220   -2.7869    0.0000 H       1  UNL1        0.0233
     30 H           4.2690   -2.5600    0.0000 H       1  UNL1        0.0233
     31 H           4.0420   -1.7131    0.0000 H       1  UNL1        0.0233
     32 H           6.0841   -1.3099    0.0000 H       1  UNL1        0.0235
     33 H           6.9319   -1.0862    0.0000 H       1  UNL1        0.0235
     34 H           6.7082   -0.2384    0.0000 H       1  UNL1        0.0235
     35 H           3.4860    2.2500    0.0000 H       1  UNL1        0.0278
     36 H           2.8660    2.8700    0.0000 H       1  UNL1        0.0278
     37 H           2.2460    2.2500    0.0000 H       1  UNL1        0.0278
@<TRIPOS>BOND
     1     1     2    1
     2     1     3    1
     3     1     5    1
     4     1    16    1
     5     2     4    1
     6     2     7    1
     7     2    17    1
     8     3     6    1
     9     3    18    1
    10     3    19    1
    11     4    12    1
    12     4    13    1
    13     4    20    1
    14     5     8    2
    15     5     9    1
    16     6    10    1
    17     6    14    1
    18     6    21    1
    19     7    11    2
    20     7    22    1
    21     8    11    1
    22     8    15    1
    23     9    10    2
    24     9    23    1
    25    10    24    1
    26    11    25    1
    27    12    26    1
    28    12    27    1
    29    12    28    1
    30    13    29    1
    31    13    30    1
    32    13    31    1
    33    14    32    1
    34    14    33    1
    35    14    34    1
    36    15    35    1
    37    15    36    1
    38    15    37    1
