@<TRIPOS>MOLECULE
IMPHY008702
 50 54 0 0 0
SMALL
GASTEIGER

@<TRIPOS>ATOM
      1 O           5.5162    1.0406    0.0000 O.3     1  UNL1       -0.4568
      2 O           4.7902   -2.3392    0.0000 O.3     1  UNL1       -0.3913
      3 O           8.4608   -0.0601    0.0000 O.3     1  UNL1       -0.3881
      4 O           7.9012   -1.9205    0.0000 O.3     1  UNL1       -0.3891
      5 O           7.9380    1.5971    0.0000 O.2     1  UNL1       -0.2501
      6 O           4.4394    2.2690    0.0000 O.3     1  UNL1       -0.4804
      7 O           6.1653    2.1234    0.0000 O.2     1  UNL1       -0.2507
      8 C           4.4481    0.1523    0.0000 C.3     1  UNL1       -0.0029
      9 C           5.6621   -0.6933    0.0000 C.3     1  UNL1        0.1263
     10 C           4.7500   -0.7149    0.0000 C.3     1  UNL1        0.0321
     11 C           5.9251    0.1807    0.0000 C.3     1  UNL1        0.0308
     12 C           5.1763    0.7015    0.0000 C.3     1  UNL1        0.0702
     13 C           6.8424    0.3967    0.0000 C.3     1  UNL1        0.1003
     14 C           3.7521   -0.6801    0.0000 C.3     1  UNL1       -0.0392
     15 C           4.2598   -1.4914    0.0000 C.3     1  UNL1        0.0628
     16 C           3.5812    0.4569    0.0000 C.3     1  UNL1       -0.0248
     17 C           2.6992   -0.9427    0.0000 C.3     1  UNL1       -0.0172
     18 C           6.2999   -1.4079    0.0000 C.3     1  UNL1        0.0164
     19 C           7.4875   -0.2895    0.0000 C.3     1  UNL1        0.0970
     20 C           3.3475   -1.5927    0.0000 C.3     1  UNL1       -0.0199
     21 C           7.2160   -1.1921    0.0000 C.3     1  UNL1        0.0857
     22 C           2.8036   -0.0301    0.0000 C.2     1  UNL1       -0.0729
     23 C           7.1072    1.0406    0.0000 C.2     1  UNL1        0.3166
     24 C           5.2603    1.6980    0.0000 C.2     1  UNL1        0.3088
     25 C           7.8258    0.5779    0.0000 C.3     1  UNL1       -0.0465
     26 C           2.0000    0.5650    0.0000 C.2     1  UNL1       -0.0992
     27 H           5.0558   -1.2543    0.0000 H       1  UNL1        0.0370
     28 H           6.0411    0.7897    0.0000 H       1  UNL1        0.0359
     29 H           4.6335    1.0011    0.0000 H       1  UNL1        0.0423
     30 H           3.7092   -1.2986    0.0000 H       1  UNL1        0.0277
     31 H           4.3272   -0.9117    0.0000 H       1  UNL1        0.0277
     32 H           3.9898   -2.0496    0.0000 H       1  UNL1        0.0598
     33 H           3.9118    0.9815    0.0000 H       1  UNL1        0.0316
     34 H           3.1434    0.8960    0.0000 H       1  UNL1        0.0316
     35 H           2.1137   -1.1466    0.0000 H       1  UNL1        0.0346
     36 H           5.7755   -1.7388    0.0000 H       1  UNL1        0.0330
     37 H           6.5396   -1.9796    0.0000 H       1  UNL1        0.0330
     38 H           7.9124   -0.7410    0.0000 H       1  UNL1        0.0630
     39 H           2.8220   -1.9218    0.0000 H       1  UNL1        0.0296
     40 H           3.5514   -2.1782    0.0000 H       1  UNL1        0.0296
     41 H           7.0374   -1.7858    0.0000 H       1  UNL1        0.0621
     42 H           7.9382   -0.0319    0.0000 H       1  UNL1        0.0241
     43 H           8.4356    0.6902    0.0000 H       1  UNL1        0.0241
     44 H           7.7135    1.1876    0.0000 H       1  UNL1        0.0241
     45 H           4.4995   -2.8868    0.0000 H       1  UNL1        0.2098
     46 H           2.0704    1.1810    0.0000 H       1  UNL1        0.0534
     47 H           1.4313    0.3181    0.0000 H       1  UNL1        0.0534
     48 H           8.8858   -0.5115    0.0000 H       1  UNL1        0.2099
     49 H           7.7226   -2.5142    0.0000 H       1  UNL1        0.2099
     50 H           4.4915    2.8868    0.0000 H       1  UNL1        0.2951
@<TRIPOS>BOND
     1     1     9    1
     2     1    23    1
     3     2    15    1
     4     2    45    1
     5     3    19    1
     6     3    48    1
     7     4    21    1
     8     4    49    1
     9     5    23    2
    10     6    24    1
    11     6    50    1
    12     7    24    2
    13     8    10    1
    14     8    12    1
    15     8    14    1
    16     8    16    1
    17     9    10    1
    18     9    11    1
    19     9    18    1
    20    10    15    1
    21    10    27    1
    22    11    12    1
    23    11    13    1
    24    11    28    1
    25    12    24    1
    26    12    29    1
    27    13    19    1
    28    13    23    1
    29    13    25    1
    30    14    17    1
    31    14    30    1
    32    14    31    1
    33    15    20    1
    34    15    32    1
    35    16    22    1
    36    16    33    1
    37    16    34    1
    38    17    20    1
    39    17    22    1
    40    17    35    1
    41    18    21    1
    42    18    36    1
    43    18    37    1
    44    19    21    1
    45    19    38    1
    46    20    39    1
    47    20    40    1
    48    21    41    1
    49    22    26    2
    50    25    42    1
    51    25    43    1
    52    25    44    1
    53    26    46    1
    54    26    47    1
