@<TRIPOS>MOLECULE
IMPHY005978
 30 31 0 0 0
SMALL
GASTEIGER

@<TRIPOS>ATOM
      1 O           3.5000   -0.8800    0.0000 O.3     1  UNL1       -0.3326
      2 O           4.5878   -0.8230    0.0000 O.3     1  UNL1       -0.4251
      3 O           6.3479   -1.1018    0.0000 O.2     1  UNL1       -0.2452
      4 C           4.0000   -0.0140    0.0000 C.3     1  UNL1        0.2393
      5 C           3.5000    0.8520    0.0000 C.3     1  UNL1        0.0175
      6 C           2.5000    0.8520    0.0000 C.3     1  UNL1       -0.0444
      7 C           2.5000   -0.8800    0.0000 C.3     1  UNL1        0.0605
      8 C           2.0000   -0.0140    0.0000 C.3     1  UNL1       -0.0265
      9 C           4.5878    0.7950    0.0000 C.2     1  UNL1        0.0077
     10 C           5.5388    0.4860    0.0000 C.2     1  UNL1        0.0387
     11 C           2.0000   -1.7461    0.0000 C.3     1  UNL1       -0.0385
     12 C           5.5388   -0.5140    0.0000 C.2     1  UNL1        0.3376
     13 C           4.2788    1.7461    0.0000 C.3     1  UNL1       -0.0369
     14 C           6.3479    1.0738    0.0000 C.3     1  UNL1       -0.0328
     15 H           4.0826    1.0641    0.0000 H       1  UNL1        0.0332
     16 H           3.3923    1.4626    0.0000 H       1  UNL1        0.0332
     17 H           2.6077    1.4626    0.0000 H       1  UNL1        0.0268
     18 H           1.9174    1.0641    0.0000 H       1  UNL1        0.0268
     19 H           2.8100   -1.4170    0.0000 H       1  UNL1        0.0595
     20 H           1.5250    0.3845    0.0000 H       1  UNL1        0.0290
     21 H           1.5250   -0.4125    0.0000 H       1  UNL1        0.0290
     22 H           1.4631   -1.4361    0.0000 H       1  UNL1        0.0255
     23 H           1.6900   -2.2830    0.0000 H       1  UNL1        0.0255
     24 H           2.5369   -2.0561    0.0000 H       1  UNL1        0.0255
     25 H           4.8684    1.9376    0.0000 H       1  UNL1        0.0277
     26 H           4.0872    2.3357    0.0000 H       1  UNL1        0.0277
     27 H           3.6891    1.5545    0.0000 H       1  UNL1        0.0277
     28 H           6.7123    0.5722    0.0000 H       1  UNL1        0.0280
     29 H           6.8494    1.4382    0.0000 H       1  UNL1        0.0280
     30 H           5.9834    1.5754    0.0000 H       1  UNL1        0.0280
@<TRIPOS>BOND
     1     1     4    1
     2     1     7    1
     3     2     4    1
     4     2    12    1
     5     3    12    2
     6     4     5    1
     7     4     9    1
     8     5     6    1
     9     5    15    1
    10     5    16    1
    11     6     8    1
    12     6    17    1
    13     6    18    1
    14     7     8    1
    15     7    11    1
    16     7    19    1
    17     8    20    1
    18     8    21    1
    19     9    10    2
    20     9    13    1
    21    10    12    1
    22    10    14    1
    23    11    22    1
    24    11    23    1
    25    11    24    1
    26    13    25    1
    27    13    26    1
    28    13    27    1
    29    14    28    1
    30    14    29    1
    31    14    30    1
