@<TRIPOS>MOLECULE
IMPHY008616
 103 106 0 0 0
SMALL
GASTEIGER

@<TRIPOS>ATOM
      1 O          11.7341    3.3100    0.0000 O.3     1  UNL1       -0.3401
      2 O          11.7341    6.3100    0.0000 O.3     1  UNL1       -0.3405
      3 O          10.0021    3.3100    0.0000 O.3     1  UNL1       -0.3431
      4 O          10.0021    7.3100    0.0000 O.3     1  UNL1       -0.3461
      5 O          10.0021    4.3100    0.0000 O.3     1  UNL1       -0.3865
      6 O          13.4662    6.3100    0.0000 O.3     1  UNL1       -0.3484
      7 O          13.4662    4.3100    0.0000 O.3     1  UNL1       -0.3841
      8 O           9.1360    8.8100    0.0000 O.3     1  UNL1       -0.3431
      9 O          11.7341    1.3100    0.0000 O.3     1  UNL1       -0.3841
     10 O          10.0021    0.3100    0.0000 O.3     1  UNL1       -0.3864
     11 O           8.2700    1.3100    0.0000 O.3     1  UNL1       -0.3866
     12 O           8.2700    6.3100    0.0000 O.3     1  UNL1       -0.3841
     13 O           6.5380    7.3100    0.0000 O.3     1  UNL1       -0.3864
     14 O           6.5380    9.3100    0.0000 O.3     1  UNL1       -0.3866
     15 O          16.0643   10.8100    0.0000 O.3     1  UNL1       -0.5033
     16 O          14.3322   11.8100    0.0000 O.3     1  UNL1       -0.5033
     17 O           0.5369    3.9050    0.0000 O.3     2  UNL2       -0.5033
     18 O           2.2690    2.9050    0.0000 O.3     2  UNL2       -0.5033
     19 O           4.0010    8.9050    0.0000 O.3     2  UNL2       -0.4775
     20 O           2.2690    8.9050    0.0000 O.2     2  UNL2       -0.2458
     21 C          11.7341    4.3100    0.0000 C.3     1  UNL1        0.1206
     22 C          10.8681    4.8100    0.0000 C.3     1  UNL1        0.1123
     23 C          10.8681    5.8100    0.0000 C.3     1  UNL1        0.1134
     24 C          12.6002    4.8100    0.0000 C.3     1  UNL1        0.1345
     25 C          12.6002    5.8100    0.0000 C.3     1  UNL1        0.1879
     26 C          10.8681    2.8100    0.0000 C.3     1  UNL1        0.1883
     27 C          10.8681    1.8100    0.0000 C.3     1  UNL1        0.1341
     28 C          10.0021    1.3100    0.0000 C.3     1  UNL1        0.1140
     29 C          10.0021    6.3100    0.0000 C.3     1  UNL1        0.0796
     30 C           9.1360    1.8100    0.0000 C.3     1  UNL1        0.1095
     31 C           9.1360    2.8100    0.0000 C.3     1  UNL1        0.0873
     32 C           9.1360    7.8100    0.0000 C.3     1  UNL1        0.1879
     33 C           8.2700    7.3100    0.0000 C.3     1  UNL1        0.1341
     34 C           7.4040    7.8100    0.0000 C.3     1  UNL1        0.1140
     35 C           7.4040    8.8100    0.0000 C.3     1  UNL1        0.1095
     36 C           8.2700    9.3100    0.0000 C.3     1  UNL1        0.0873
     37 C           8.2700    3.3100    0.0000 C.3     1  UNL1       -0.0361
     38 C          13.4662    7.3100    0.0000 C.3     1  UNL1        0.0547
     39 C           8.2700   10.3100    0.0000 C.3     1  UNL1       -0.0361
     40 C          14.3322    7.8100    0.0000 C.3     1  UNL1       -0.0039
     41 C          14.3322    8.8100    0.0000 C.ar    1  UNL1       -0.0415
     42 C          15.1982    9.3100    0.0000 C.ar    1  UNL1       -0.0133
     43 C          13.4662    9.3100    0.0000 C.ar    1  UNL1       -0.0548
     44 C          15.1982   10.3100    0.0000 C.ar    1  UNL1        0.1585
     45 C          13.4662   10.3100    0.0000 C.ar    1  UNL1       -0.0163
     46 C          14.3322   10.8100    0.0000 C.ar    1  UNL1        0.1582
     47 C           2.2690    5.9050    0.0000 C.ar    2  UNL2       -0.0211
     48 C           1.4030    5.4050    0.0000 C.ar    2  UNL2       -0.0094
     49 C           3.1350    5.4050    0.0000 C.ar    2  UNL2       -0.0509
     50 C           1.4030    4.4050    0.0000 C.ar    2  UNL2        0.1588
     51 C           2.2690    3.9050    0.0000 C.ar    2  UNL2        0.1582
     52 C           3.1350    4.4050    0.0000 C.ar    2  UNL2       -0.0160
     53 C           2.2690    6.9050    0.0000 C.2     2  UNL2       -0.0477
     54 C           3.1350    7.4050    0.0000 C.2     2  UNL2        0.0229
     55 C           3.1350    8.4050    0.0000 C.2     2  UNL2        0.3296
     56 H          12.4702    3.8850    0.0000 H       1  UNL1        0.0651
     57 H          10.8681    3.9600    0.0000 H       1  UNL1        0.0647
     58 H          10.8681    6.6600    0.0000 H       1  UNL1        0.0647
     59 H          13.3363    5.2350    0.0000 H       1  UNL1        0.0671
     60 H          12.6002    6.6600    0.0000 H       1  UNL1        0.0937
     61 H          11.6042    2.3850    0.0000 H       1  UNL1        0.0938
     62 H          10.8681    0.9600    0.0000 H       1  UNL1        0.0671
     63 H           9.2660    0.8850    0.0000 H       1  UNL1        0.0648
     64 H           9.3915    6.4177    0.0000 H       1  UNL1        0.0587
     65 H           9.7900    5.7274    0.0000 H       1  UNL1        0.0587
     66 H           8.3999    2.2350    0.0000 H       1  UNL1        0.0646
     67 H           9.1360    3.6600    0.0000 H       1  UNL1        0.0621
     68 H           9.1360    6.9600    0.0000 H       1  UNL1        0.0937
     69 H           7.5339    6.8850    0.0000 H       1  UNL1        0.0671
     70 H           6.6679    8.2350    0.0000 H       1  UNL1        0.0648
     71 H           7.4040    9.6600    0.0000 H       1  UNL1        0.0646
     72 H           9.0062    9.7350    0.0000 H       1  UNL1        0.0621
     73 H           9.4651    4.6200    0.0000 H       1  UNL1        0.2100
     74 H          14.0031    4.6200    0.0000 H       1  UNL1        0.2101
     75 H           8.5800    3.8469    0.0000 H       1  UNL1        0.0255
     76 H           7.7331    3.6200    0.0000 H       1  UNL1        0.0255
     77 H           7.9600    2.7731    0.0000 H       1  UNL1        0.0255
     78 H          11.7341    0.6900    0.0000 H       1  UNL1        0.2101
     79 H           9.4651    0.0000    0.0000 H       1  UNL1        0.2100
     80 H          13.2541    7.8926    0.0000 H       1  UNL1        0.0564
     81 H          12.8556    7.2023    0.0000 H       1  UNL1        0.0564
     82 H           8.8900   10.3100    0.0000 H       1  UNL1        0.0255
     83 H           8.2700   10.9300    0.0000 H       1  UNL1        0.0255
     84 H           7.6500   10.3100    0.0000 H       1  UNL1        0.0255
     85 H           7.7331    1.6200    0.0000 H       1  UNL1        0.2100
     86 H           7.7331    6.0000    0.0000 H       1  UNL1        0.2101
     87 H           6.0010    7.6200    0.0000 H       1  UNL1        0.2100
     88 H           6.5380    9.9300    0.0000 H       1  UNL1        0.2100
     89 H          14.5443    7.2274    0.0000 H       1  UNL1        0.0335
     90 H          14.9428    7.9177    0.0000 H       1  UNL1        0.0335
     91 H          15.7352    9.0000    0.0000 H       1  UNL1        0.0658
     92 H          12.9292    9.0000    0.0000 H       1  UNL1        0.0621
     93 H          12.9292   10.6200    0.0000 H       1  UNL1        0.0655
     94 H          16.6012   10.5000    0.0000 H       1  UNL1        0.2923
     95 H          13.7953   12.1200    0.0000 H       1  UNL1        0.2923
     96 H           0.8660    5.7150    0.0000 H       2  UNL2        0.0661
     97 H           3.6720    5.7150    0.0000 H       2  UNL2        0.0625
     98 H           3.6720    4.0950    0.0000 H       2  UNL2        0.0655
     99 H           1.7320    7.2150    0.0000 H       2  UNL2        0.0626
    100 H           3.6720    7.0950    0.0000 H       2  UNL2        0.0689
    101 H           0.0000    4.2150    0.0000 H       2  UNL2        0.2923
    102 H           2.8059    2.5950    0.0000 H       2  UNL2        0.2923
    103 H           4.0010    9.5250    0.0000 H       2  UNL2        0.2954
@<TRIPOS>BOND
     1     1    21    1
     2     1    26    1
     3     2    23    1
     4     2    25    1
     5     3    26    1
     6     3    31    1
     7     4    29    1
     8     4    32    1
     9     5    22    1
    10     5    73    1
    11     6    25    1
    12     6    38    1
    13     7    24    1
    14     7    74    1
    15     8    32    1
    16     8    36    1
    17     9    27    1
    18     9    78    1
    19    10    28    1
    20    10    79    1
    21    11    30    1
    22    11    85    1
    23    12    33    1
    24    12    86    1
    25    13    34    1
    26    13    87    1
    27    14    35    1
    28    14    88    1
    29    15    44    1
    30    15    94    1
    31    16    46    1
    32    16    95    1
    33    17    50    1
    34    17   101    1
    35    18    51    1
    36    18   102    1
    37    19    55    1
    38    19   103    1
    39    20    55    2
    40    21    22    1
    41    21    24    1
    42    21    56    1
    43    22    23    1
    44    22    57    1
    45    23    29    1
    46    23    58    1
    47    24    25    1
    48    24    59    1
    49    25    60    1
    50    26    27    1
    51    26    61    1
    52    27    28    1
    53    27    62    1
    54    28    30    1
    55    28    63    1
    56    29    64    1
    57    29    65    1
    58    30    31    1
    59    30    66    1
    60    31    37    1
    61    31    67    1
    62    32    33    1
    63    32    68    1
    64    33    34    1
    65    33    69    1
    66    34    35    1
    67    34    70    1
    68    35    36    1
    69    35    71    1
    70    36    39    1
    71    36    72    1
    72    37    75    1
    73    37    76    1
    74    37    77    1
    75    38    40    1
    76    38    80    1
    77    38    81    1
    78    39    82    1
    79    39    83    1
    80    39    84    1
    81    40    41    1
    82    40    89    1
    83    40    90    1
    84    41    42   ar
    85    41    43   ar
    86    42    44   ar
    87    42    91    1
    88    43    45   ar
    89    43    92    1
    90    44    46   ar
    91    45    46   ar
    92    45    93    1
    93    47    48   ar
    94    47    49   ar
    95    47    53    1
    96    48    50   ar
    97    48    96    1
    98    49    52   ar
    99    49    97    1
   100    50    51   ar
   101    51    52   ar
   102    52    98    1
   103    53    54    2
   104    53    99    1
   105    54    55    1
   106    54   100    1
