@<TRIPOS>MOLECULE
IMPHY011137
 30 29 0 0 0
SMALL
GASTEIGER

@<TRIPOS>ATOM
      1 O           2.5369   -0.8660    0.0000 O.3     1  UNL1       -0.3844
      2 O           5.1350   -1.3660    0.0000 O.2     1  UNL1       -0.2973
      3 C           6.8671   -0.3660    0.0000 C.3     1  UNL1       -0.0401
      4 C           3.4030   -0.3660    0.0000 C.3     1  UNL1        0.0877
      5 C           6.0010    0.1340    0.0000 C.3     1  UNL1        0.0083
      6 C           4.2690    0.1340    0.0000 C.3     1  UNL1        0.0380
      7 C           5.1350   -0.3660    0.0000 C.2     1  UNL1        0.1366
      8 C           7.7331    0.1340    0.0000 C.3     1  UNL1       -0.0623
      9 C           6.8671   -1.3660    0.0000 C.3     1  UNL1       -0.0623
     10 C           3.9030   -1.2320    0.0000 C.3     1  UNL1       -0.0320
     11 C           2.9030    0.5000    0.0000 C.2     1  UNL1       -0.0598
     12 C           3.4030    1.3660    0.0000 C.2     1  UNL1       -0.1000
     13 H           6.3301   -0.6760    0.0000 H       1  UNL1        0.0299
     14 H           6.3996    0.6089    0.0000 H       1  UNL1        0.0344
     15 H           5.6025    0.6089    0.0000 H       1  UNL1        0.0344
     16 H           4.6675    0.6089    0.0000 H       1  UNL1        0.0373
     17 H           3.8705    0.6089    0.0000 H       1  UNL1        0.0373
     18 H           8.0431   -0.4030    0.0000 H       1  UNL1        0.0232
     19 H           8.2700    0.4440    0.0000 H       1  UNL1        0.0232
     20 H           7.4231    0.6709    0.0000 H       1  UNL1        0.0232
     21 H           6.2471   -1.3660    0.0000 H       1  UNL1        0.0232
     22 H           6.8671   -1.9860    0.0000 H       1  UNL1        0.0232
     23 H           7.4871   -1.3660    0.0000 H       1  UNL1        0.0232
     24 H           3.3660   -1.5420    0.0000 H       1  UNL1        0.0260
     25 H           4.2130   -1.7690    0.0000 H       1  UNL1        0.0260
     26 H           4.4399   -0.9221    0.0000 H       1  UNL1        0.0260
     27 H           2.2830    0.5000    0.0000 H       1  UNL1        0.0595
     28 H           2.0000   -0.5560    0.0000 H       1  UNL1        0.2106
     29 H           4.0230    1.3660    0.0000 H       1  UNL1        0.0533
     30 H           3.0930    1.9030    0.0000 H       1  UNL1        0.0533
@<TRIPOS>BOND
     1     1     4    1
     2     1    28    1
     3     2     7    2
     4     3     5    1
     5     3     8    1
     6     3     9    1
     7     3    13    1
     8     4     6    1
     9     4    10    1
    10     4    11    1
    11     5     7    1
    12     5    14    1
    13     5    15    1
    14     6     7    1
    15     6    16    1
    16     6    17    1
    17     8    18    1
    18     8    19    1
    19     8    20    1
    20     9    21    1
    21     9    22    1
    22     9    23    1
    23    10    24    1
    24    10    25    1
    25    10    26    1
    26    11    12    2
    27    11    27    1
    28    12    29    1
    29    12    30    1
