@<TRIPOS>MOLECULE
IMPHY012530
 81 86 0 0 0
SMALL
GASTEIGER

@<TRIPOS>ATOM
      1 O           7.7662    1.6674    0.0000 O.3     1  UNL1       -0.3876
      2 O           7.7207    4.6082    0.0000 O.3     1  UNL1       -0.3911
      3 O           6.0010   -3.5361    0.0000 O.3     1  UNL1       -0.3454
      4 O           4.3961   -0.9669    0.0000 O.2     1  UNL1       -0.3004
      5 O           4.1621    5.1811    0.0000 O.3     1  UNL1       -0.4571
      6 O           4.2690   -3.5361    0.0000 O.3     1  UNL1       -0.3431
      7 O           4.7972    6.8461    0.0000 O.2     1  UNL1       -0.2456
      8 O           6.0010   -5.5361    0.0000 O.3     1  UNL1       -0.3841
      9 O           4.2690   -6.5361    0.0000 O.3     1  UNL1       -0.3864
     10 O           2.5369   -5.5361    0.0000 O.3     1  UNL1       -0.3866
     11 C           6.8982    2.1641    0.0000 C.3     1  UNL1        0.0775
     12 C           6.0303    2.6608    0.0000 C.3     1  UNL1        0.0060
     13 C           6.9021    1.1641    0.0000 C.3     1  UNL1       -0.0078
     14 C           6.0380    0.6608    0.0000 C.3     1  UNL1       -0.0232
     15 C           6.0260   -0.3808    0.0000 C.3     1  UNL1        0.0321
     16 C           6.2358    3.6334    0.0000 C.3     1  UNL1        0.0179
     17 C           5.1662    2.1574    0.0000 C.3     1  UNL1       -0.0441
     18 C           5.1701    1.1574    0.0000 C.3     1  UNL1       -0.0484
     19 C           6.9260   -0.9051    0.0000 C.3     1  UNL1       -0.0263
     20 C           7.6327    2.8340    0.0000 C.3     1  UNL1        0.0035
     21 C           7.8140    0.6608    0.0000 C.3     1  UNL1       -0.0470
     22 C           7.2241    3.7402    0.0000 C.3     1  UNL1        0.0651
     23 C           7.8261   -0.3808    0.0000 C.3     1  UNL1       -0.0489
     24 C           5.0761   -0.9051    0.0000 C.3     1  UNL1       -0.0381
     25 C           5.1624    3.1574    0.0000 C.3     1  UNL1       -0.0563
     26 C           6.9386   -1.9900    0.0000 C.3     1  UNL1       -0.0228
     27 C           5.0635   -1.9900    0.0000 C.3     1  UNL1       -0.0256
     28 C           6.0010   -2.5361    0.0000 C.3     1  UNL1        0.0621
     29 C           5.5650    4.3751    0.0000 C.2     1  UNL1       -0.0198
     30 C           5.0418   -0.2034    0.0000 C.2     1  UNL1        0.1270
     31 C           4.5708    4.2684    0.0000 C.3     1  UNL1        0.1148
     32 C           5.7709    5.3537    0.0000 C.2     1  UNL1        0.0253
     33 C           4.9038    5.8518    0.0000 C.2     1  UNL1        0.3323
     34 C           5.1350   -4.0361    0.0000 C.3     1  UNL1        0.1881
     35 C           5.1350   -5.0361    0.0000 C.3     1  UNL1        0.1341
     36 C           4.2690   -5.5361    0.0000 C.3     1  UNL1        0.1140
     37 C           3.4030   -4.0361    0.0000 C.3     1  UNL1        0.0873
     38 C           3.4030   -5.0361    0.0000 C.3     1  UNL1        0.1095
     39 C           2.5369   -3.5361    0.0000 C.3     1  UNL1       -0.0361
     40 H           7.6333    1.5976    0.0000 H       1  UNL1        0.0332
     41 H           5.3002    0.2386    0.0000 H       1  UNL1        0.0314
     42 H           6.4565    4.2128    0.0000 H       1  UNL1        0.0378
     43 H           4.9519    2.7392    0.0000 H       1  UNL1        0.0272
     44 H           4.5560    2.0474    0.0000 H       1  UNL1        0.0272
     45 H           4.5591    1.2627    0.0000 H       1  UNL1        0.0268
     46 H           4.9602    0.5740    0.0000 H       1  UNL1        0.0268
     47 H           7.6654   -1.3244    0.0000 H       1  UNL1        0.0311
     48 H           8.0000    2.3346    0.0000 H       1  UNL1        0.0318
     49 H           8.1680    3.1468    0.0000 H       1  UNL1        0.0318
     50 H           8.4261    0.5617    0.0000 H       1  UNL1        0.0269
     51 H           8.0163    1.2468    0.0000 H       1  UNL1        0.0269
     52 H           6.8846    4.2590    0.0000 H       1  UNL1        0.0600
     53 H           8.0419   -0.9620    0.0000 H       1  UNL1        0.0268
     54 H           8.4357   -0.2677    0.0000 H       1  UNL1        0.0268
     55 H           4.8738   -0.3190    0.0000 H       1  UNL1        0.0276
     56 H           4.4640   -1.0041    0.0000 H       1  UNL1        0.0276
     57 H           5.4703    3.6955    0.0000 H       1  UNL1        0.0236
     58 H           4.6242    3.4653    0.0000 H       1  UNL1        0.0236
     59 H           4.8544    2.6193    0.0000 H       1  UNL1        0.0236
     60 H           7.1544   -2.5712    0.0000 H       1  UNL1        0.0293
     61 H           7.5482   -1.8769    0.0000 H       1  UNL1        0.0293
     62 H           4.4539   -1.8769    0.0000 H       1  UNL1        0.0290
     63 H           4.8477   -2.5712    0.0000 H       1  UNL1        0.0290
     64 H           8.3019    1.9795    0.0000 H       1  UNL1        0.2102
     65 H           6.5386   -2.8451    0.0000 H       1  UNL1        0.0597
     66 H           4.8320    0.3801    0.0000 H       1  UNL1        0.1032
     67 H           8.3407    4.6106    0.0000 H       1  UNL1        0.2098
     68 H           3.9815    4.0756    0.0000 H       1  UNL1        0.0746
     69 H           4.7009    3.6623    0.0000 H       1  UNL1        0.0746
     70 H           6.3367    5.6070    0.0000 H       1  UNL1        0.0689
     71 H           5.1350   -3.4161    0.0000 H       1  UNL1        0.0937
     72 H           5.1350   -5.6561    0.0000 H       1  UNL1        0.0671
     73 H           3.7320   -5.8461    0.0000 H       1  UNL1        0.0648
     74 H           3.4030   -3.4161    0.0000 H       1  UNL1        0.0621
     75 H           3.4030   -5.6561    0.0000 H       1  UNL1        0.0646
     76 H           6.0010   -6.1561    0.0000 H       1  UNL1        0.2101
     77 H           2.8469   -2.9992    0.0000 H       1  UNL1        0.0255
     78 H           2.0000   -3.2261    0.0000 H       1  UNL1        0.0255
     79 H           2.2269   -4.0731    0.0000 H       1  UNL1        0.0255
     80 H           3.7320   -6.8461    0.0000 H       1  UNL1        0.2100
     81 H           2.0000   -5.2261    0.0000 H       1  UNL1        0.2100
@<TRIPOS>BOND
     1    11     1    1
     2     1    64    1
     3    22     2    1
     4     2    67    1
     5    28     3    1
     6    34     3    1
     7     4    30    2
     8     5    31    1
     9     5    33    1
    10     6    34    1
    11     6    37    1
    12     7    33    2
    13    35     8    1
    14     8    76    1
    15    36     9    1
    16     9    80    1
    17    38    10    1
    18    10    81    1
    19    11    12    1
    20    11    13    1
    21    11    20    1
    22    12    16    1
    23    12    17    1
    24    12    25    1
    25    13    14    1
    26    13    21    1
    27    13    40    1
    28    14    15    1
    29    14    18    1
    30    14    41    1
    31    15    19    1
    32    15    24    1
    33    15    30    1
    34    16    22    1
    35    16    29    1
    36    16    42    1
    37    17    18    1
    38    17    43    1
    39    17    44    1
    40    18    45    1
    41    18    46    1
    42    19    23    1
    43    19    26    1
    44    19    47    1
    45    20    22    1
    46    20    48    1
    47    20    49    1
    48    21    23    1
    49    21    50    1
    50    21    51    1
    51    22    52    1
    52    23    53    1
    53    23    54    1
    54    24    27    1
    55    24    55    1
    56    24    56    1
    57    25    57    1
    58    25    58    1
    59    25    59    1
    60    26    28    1
    61    26    60    1
    62    26    61    1
    63    27    28    1
    64    27    62    1
    65    27    63    1
    66    28    65    1
    67    29    31    1
    68    29    32    2
    69    30    66    1
    70    31    68    1
    71    31    69    1
    72    32    33    1
    73    32    70    1
    74    34    35    1
    75    34    71    1
    76    35    36    1
    77    35    72    1
    78    36    38    1
    79    36    73    1
    80    37    38    1
    81    37    39    1
    82    37    74    1
    83    38    75    1
    84    39    77    1
    85    39    78    1
    86    39    79    1
