@<TRIPOS>MOLECULE
IMPHY008334
 58 61 0 0 0
SMALL
GASTEIGER

@<TRIPOS>ATOM
      1 O           9.9346   -0.9914    0.0000 O.3     1  UNL1       -0.4852
      2 O          12.5183   -0.1867    0.0000 O.3     1  UNL1       -0.3855
      3 O           6.3624   -1.2213    0.0000 O.2     1  UNL1       -0.4539
      4 O           8.1224    1.8133    0.0000 O.3     1  UNL1       -0.5055
      5 O           6.3740    1.8479    0.0000 O.2     1  UNL1       -0.2866
      6 O           3.7205    0.2858    0.0000 O.3     1  UNL1       -0.5059
      7 O           2.0000   -2.7208    0.0000 O.3     1  UNL1       -0.5066
      8 C          10.5183   -0.1867    0.0000 C.3     1  UNL1        0.1323
      9 C          11.5183   -0.1867    0.0000 C.3     1  UNL1        0.0974
     10 C           9.9346    0.6181    0.0000 C.3     1  UNL1        0.0192
     11 C           8.9884    0.3133    0.0000 C.ar    1  UNL1        0.0401
     12 C           8.9884   -0.6867    0.0000 C.ar    1  UNL1        0.1313
     13 C          11.5183   -1.1867    0.0000 C.3     1  UNL1       -0.0328
     14 C          11.5183    0.8133    0.0000 C.3     1  UNL1       -0.0328
     15 C           8.1224    0.8133    0.0000 C.ar    1  UNL1        0.1380
     16 C           7.2564    0.3133    0.0000 C.ar    1  UNL1        0.1060
     17 C           8.1224   -1.1867    0.0000 C.ar    1  UNL1        0.0236
     18 C           7.2564   -0.6867    0.0000 C.ar    1  UNL1        0.1463
     19 C           6.3624    0.8480    0.0000 C.ar    1  UNL1        0.2001
     20 C           5.4564    0.3342    0.0000 C.ar    1  UNL1        0.0467
     21 C           5.4564   -0.7075    0.0000 C.ar    1  UNL1        0.1462
     22 C           4.5923    0.8375    0.0000 C.3     1  UNL1       -0.0021
     23 C           4.5923   -1.2108    0.0000 C.ar    1  UNL1        0.0593
     24 C           4.5961    1.8375    0.0000 C.2     1  UNL1       -0.0807
     25 C           3.7243   -0.7142    0.0000 C.ar    1  UNL1        0.1310
     26 C           4.5961   -2.2108    0.0000 C.ar    1  UNL1       -0.0441
     27 C           3.7320    2.3408    0.0000 C.2     1  UNL1       -0.0793
     28 C           2.8602   -1.2175    0.0000 C.ar    1  UNL1        0.0220
     29 C           3.7320   -2.7141    0.0000 C.ar    1  UNL1       -0.0193
     30 C           2.8641   -2.2175    0.0000 C.ar    1  UNL1        0.1204
     31 C           3.7359    3.3408    0.0000 C.3     1  UNL1       -0.0440
     32 C           2.8641    1.8442    0.0000 C.3     1  UNL1       -0.0440
     33 H          10.8000   -0.7390    0.0000 H       1  UNL1        0.0765
     34 H          10.4720    0.9273    0.0000 H       1  UNL1        0.0352
     35 H           9.6836    1.1850    0.0000 H       1  UNL1        0.0352
     36 H          10.8983   -1.1867    0.0000 H       1  UNL1        0.0258
     37 H          11.5183   -1.8067    0.0000 H       1  UNL1        0.0258
     38 H          12.1383   -1.1867    0.0000 H       1  UNL1        0.0258
     39 H          12.1383    0.8133    0.0000 H       1  UNL1        0.0258
     40 H          11.5183    1.4333    0.0000 H       1  UNL1        0.0258
     41 H          10.8983    0.8133    0.0000 H       1  UNL1        0.0258
     42 H           8.1224   -1.8067    0.0000 H       1  UNL1        0.0691
     43 H          12.8283   -0.7236    0.0000 H       1  UNL1        0.2103
     44 H           3.9821    0.9475    0.0000 H       1  UNL1        0.0358
     45 H           4.3780    0.2557    0.0000 H       1  UNL1        0.0358
     46 H           8.6593    2.1233    0.0000 H       1  UNL1        0.2922
     47 H           5.1343    2.1454    0.0000 H       1  UNL1        0.0575
     48 H           5.1343   -2.5187    0.0000 H       1  UNL1        0.0627
     49 H           2.3221   -0.9096    0.0000 H       1  UNL1        0.0691
     50 H           3.7344   -3.3341    0.0000 H       1  UNL1        0.0654
     51 H           4.3559    3.3384    0.0000 H       1  UNL1        0.0274
     52 H           2.5562    2.3823    0.0000 H       1  UNL1        0.0274
     53 H           2.3260    1.5362    0.0000 H       1  UNL1        0.0274
     54 H           3.1720    1.3060    0.0000 H       1  UNL1        0.0274
     55 H           3.7383    3.9608    0.0000 H       1  UNL1        0.0274
     56 H           3.1159    3.3432    0.0000 H       1  UNL1        0.0274
     57 H           3.1824    0.5938    0.0000 H       1  UNL1        0.2922
     58 H           2.0024   -3.3408    0.0000 H       1  UNL1        0.2921
@<TRIPOS>BOND
     1     1     8    1
     2     1    12    1
     3     2     9    1
     4     2    43    1
     5     3    18   ar
     6     3    21   ar
     7     4    15    1
     8     4    46    1
     9     5    19    2
    10     6    25    1
    11     6    57    1
    12     7    30    1
    13     7    58    1
    14     8     9    1
    15     8    10    1
    16     8    33    1
    17     9    13    1
    18     9    14    1
    19    10    11    1
    20    10    34    1
    21    10    35    1
    22    11    12   ar
    23    11    15   ar
    24    12    17   ar
    25    13    36    1
    26    13    37    1
    27    13    38    1
    28    14    39    1
    29    14    40    1
    30    14    41    1
    31    15    16   ar
    32    16    18   ar
    33    16    19   ar
    34    17    18   ar
    35    17    42    1
    36    19    20   ar
    37    20    21   ar
    38    20    22    1
    39    21    23    1
    40    22    24    1
    41    22    44    1
    42    22    45    1
    43    23    25   ar
    44    23    26   ar
    45    24    27    2
    46    24    47    1
    47    25    28   ar
    48    26    29   ar
    49    26    48    1
    50    27    31    1
    51    27    32    1
    52    28    30   ar
    53    28    49    1
    54    29    30   ar
    55    29    50    1
    56    31    51    1
    57    31    55    1
    58    31    56    1
    59    32    52    1
    60    32    53    1
    61    32    54    1
