@<TRIPOS>MOLECULE
IMPHY000478
 29 33 0 0 0
SMALL
GASTEIGER

@<TRIPOS>ATOM
      1 C           5.1063    3.4923    0.0000 C.ar    1  UNL1        0.0343
      2 C           5.1063    4.4932    0.0000 C.ar    1  UNL1        0.1125
      3 C           4.1553    3.1825    0.0000 C.3     1  UNL1        0.2524
      4 C           5.9729    2.9919    0.0000 C.ar    1  UNL1        0.0032
      5 C           5.9729    4.9915    0.0000 C.ar    1  UNL1        0.1824
      6 C           4.1553    4.8009    0.0000 C.2     1  UNL1        0.3447
      7 C           3.8454    2.2336    0.0000 C.2     1  UNL1        0.2170
      8 O           3.5660    3.9928    0.0000 O.3     1  UNL1       -0.4365
      9 C           6.8395    3.4923    0.0000 C.ar    1  UNL1        0.0400
     10 C           6.8395    4.4932    0.0000 C.ar    1  UNL1        0.1766
     11 O           6.1809    5.9707    0.0000 O.3     1  UNL1       -0.4344
     12 O           3.8454    5.7519    0.0000 O.2     1  UNL1       -0.2448
     13 C           2.8662    2.0256    0.0000 C.ar    1  UNL1        0.0380
     14 O           4.5149    1.4884    0.0000 O.2     1  UNL1       -0.2872
     15 O           7.5826    5.1627    0.0000 O.3     1  UNL1       -0.4346
     16 C           7.1753    6.0747    0.0000 C.3     1  UNL1        0.4294
     17 C           2.1968    2.7687    0.0000 C.ar    1  UNL1       -0.0147
     18 C           2.5564    1.0681    0.0000 C.ar    1  UNL1        0.0428
     19 C           1.2197    2.5586    0.0000 C.ar    1  UNL1        0.0361
     20 C           2.5044    3.7198    0.0000 C.3     1  UNL1        0.0439
     21 C           1.5793    0.8622    0.0000 C.ar    1  UNL1        0.1765
     22 C           0.9099    1.6032    0.0000 C.ar    1  UNL1        0.1761
     23 C           1.8350    4.4629    0.0000 C.3     1  UNL1        0.0769
     24 O           1.0811    0.0000    0.0000 O.3     1  UNL1       -0.4346
     25 O           0.0000    1.1980    0.0000 O.3     1  UNL1       -0.4346
     26 N           2.1426    5.4140    0.0000 N.3     1  UNL1       -0.2700
     27 C           0.1040    0.2058    0.0000 C.3     1  UNL1        0.4294
     28 C           1.4732    6.1571    0.0000 C.3     1  UNL1        0.0897
     29 C           3.1197    5.6241    0.0000 C.3     1  UNL1        0.0897
@<TRIPOS>BOND
     1     1     2   ar
     2     1     3    1
     3     1     4   ar
     4     2     5   ar
     5     2     6    1
     6     3     7    1
     7     3     8    1
     8     4     9   ar
     9     5    10   ar
    10     5    11    1
    11     6     8    1
    12     6    12    2
    13     7    13    1
    14     7    14    2
    15     9    10   ar
    16    10    15    1
    17    11    16    1
    18    13    17   ar
    19    13    18   ar
    20    15    16    1
    21    17    19   ar
    22    17    20    1
    23    18    21   ar
    24    19    22   ar
    25    20    23    1
    26    21    22   ar
    27    21    24    1
    28    22    25    1
    29    23    26    1
    30    24    27    1
    31    25    27    1
    32    26    28    1
    33    26    29    1
