@<TRIPOS>MOLECULE
IMPHY006653
 52 54 0 0 0
SMALL
GASTEIGER

@<TRIPOS>ATOM
      1 O           2.9340    1.0125    0.0000 O.3     1  UNL1       -0.4800
      2 O           4.8000    0.5125    0.0000 O.2     1  UNL1       -0.2500
      3 O           3.7782    1.5440    0.0000 O.3     1  UNL1       -0.5031
      4 O           5.5442    2.5818    0.0000 O.3     1  UNL1       -0.5031
      5 C           3.8000   -1.4875    0.0000 C.3     1  UNL1       -0.0156
      6 C           3.8000   -0.4875    0.0000 C.3     1  UNL1        0.0994
      7 C           2.9061   -2.0221    0.0000 C.3     1  UNL1       -0.0307
      8 C           2.9061    0.0472    0.0000 C.3     1  UNL1       -0.0327
      9 C           2.0000   -1.5083    0.0000 C.3     1  UNL1       -0.0475
     10 C           4.6660   -1.9875    0.0000 C.3     1  UNL1       -0.0444
     11 C           2.0000   -0.4666    0.0000 C.3     1  UNL1       -0.0512
     12 C           4.6660    0.0125    0.0000 C.ar    1  UNL1        0.0180
     13 C           5.5321   -1.4875    0.0000 C.3     1  UNL1       -0.0270
     14 C           2.4161   -2.8939    0.0000 C.3     1  UNL1       -0.0595
     15 C           3.4160   -2.8823    0.0000 C.3     1  UNL1       -0.0595
     16 C           5.5321   -0.4875    0.0000 C.ar    1  UNL1       -0.0391
     17 C           3.8000    0.5125    0.0000 C.2     1  UNL1        0.3157
     18 C           4.6500    1.0540    0.0000 C.ar    1  UNL1        0.1631
     19 C           6.4421    0.0194    0.0000 C.ar    1  UNL1       -0.0512
     20 C           6.4501    1.0610    0.0000 C.ar    1  UNL1        0.0005
     21 C           5.5480    1.5818    0.0000 C.ar    1  UNL1        0.1620
     22 C           7.3180    1.5576    0.0000 C.3     1  UNL1       -0.0179
     23 C           8.1821    1.0543    0.0000 C.3     1  UNL1       -0.0585
     24 C           7.3219    2.5576    0.0000 C.3     1  UNL1       -0.0585
     25 H           3.8066   -2.3374    0.0000 H       1  UNL1        0.0320
     26 H           3.3107    0.5170    0.0000 H       1  UNL1        0.0279
     27 H           2.5124    0.5262    0.0000 H       1  UNL1        0.0279
     28 H           1.3891   -1.4022    0.0000 H       1  UNL1        0.0271
     29 H           1.7909   -2.0920    0.0000 H       1  UNL1        0.0271
     30 H           4.2675   -2.4624    0.0000 H       1  UNL1        0.0272
     31 H           5.0646   -2.4624    0.0000 H       1  UNL1        0.0272
     32 H           1.7909    0.1171    0.0000 H       1  UNL1        0.0266
     33 H           1.3891   -0.5727    0.0000 H       1  UNL1        0.0266
     34 H           5.7441   -2.0701    0.0000 H       1  UNL1        0.0313
     35 H           6.1426   -1.3798    0.0000 H       1  UNL1        0.0313
     36 H           2.8827   -3.1985    0.0000 H       1  UNL1        0.0235
     37 H           3.7322   -3.4156    0.0000 H       1  UNL1        0.0235
     38 H           3.9494   -2.5661    0.0000 H       1  UNL1        0.0235
     39 H           1.8756   -2.5901    0.0000 H       1  UNL1        0.0235
     40 H           2.1123   -3.4344    0.0000 H       1  UNL1        0.0235
     41 H           2.9566   -3.1976    0.0000 H       1  UNL1        0.0235
     42 H           6.9754   -0.2968    0.0000 H       1  UNL1        0.0624
     43 H           2.3970    0.7025    0.0000 H       1  UNL1        0.2951
     44 H           7.8562    1.8656    0.0000 H       1  UNL1        0.0345
     45 H           3.7711    2.1640    0.0000 H       1  UNL1        0.2923
     46 H           6.0799    2.8939    0.0000 H       1  UNL1        0.2923
     47 H           7.8701    0.5186    0.0000 H       1  UNL1        0.0235
     48 H           8.7179    0.7422    0.0000 H       1  UNL1        0.0235
     49 H           8.4942    1.5900    0.0000 H       1  UNL1        0.0235
     50 H           7.9419    2.5552    0.0000 H       1  UNL1        0.0235
     51 H           7.3243    3.1776    0.0000 H       1  UNL1        0.0235
     52 H           6.7019    2.5600    0.0000 H       1  UNL1        0.0235
@<TRIPOS>BOND
     1     1    17    1
     2     1    43    1
     3     2    17    2
     4     3    18    1
     5     3    45    1
     6     4    21    1
     7     4    46    1
     8     5     6    1
     9     5     7    1
    10     5    10    1
    11     5    25    1
    12     6     8    1
    13     6    12    1
    14     6    17    1
    15     7     9    1
    16     7    14    1
    17     7    15    1
    18     8    11    1
    19     8    26    1
    20     8    27    1
    21     9    11    1
    22     9    28    1
    23     9    29    1
    24    10    13    1
    25    10    30    1
    26    10    31    1
    27    11    32    1
    28    11    33    1
    29    12    16   ar
    30    12    18   ar
    31    13    16    1
    32    13    34    1
    33    13    35    1
    34    14    39    1
    35    14    40    1
    36    14    41    1
    37    15    36    1
    38    15    37    1
    39    15    38    1
    40    16    19   ar
    41    18    21   ar
    42    19    20   ar
    43    19    42    1
    44    20    21   ar
    45    20    22    1
    46    22    23    1
    47    22    24    1
    48    22    44    1
    49    23    47    1
    50    23    48    1
    51    23    49    1
    52    24    50    1
    53    24    51    1
    54    24    52    1
