@<TRIPOS>MOLECULE
IMPHY000967
 40 42 0 0 0
SMALL
GASTEIGER

@<TRIPOS>ATOM
      1 O           8.7460   -1.5374    0.0000 O.3     1  UNL1       -0.4852
      2 O          11.3297   -0.7327    0.0000 O.3     1  UNL1       -0.3855
      3 O           6.9338    1.2673    0.0000 O.3     1  UNL1       -0.4939
      4 O           5.1738   -1.7673    0.0000 O.2     1  UNL1       -0.4569
      5 O           5.1854    1.3019    0.0000 O.2     1  UNL1       -0.2869
      6 O           2.5357   -1.2602    0.0000 O.3     1  UNL1       -0.3873
      7 C           9.3297   -0.7327    0.0000 C.3     1  UNL1        0.1323
      8 C          10.3297   -0.7327    0.0000 C.3     1  UNL1        0.0974
      9 C           8.7460    0.0721    0.0000 C.3     1  UNL1        0.0192
     10 C           7.7998   -0.2327    0.0000 C.ar    1  UNL1        0.0404
     11 C           7.7998   -1.2327    0.0000 C.ar    1  UNL1        0.1313
     12 C          10.3297   -1.7327    0.0000 C.3     1  UNL1       -0.0328
     13 C          10.3297    0.2673    0.0000 C.3     1  UNL1       -0.0328
     14 C           6.9338    0.2673    0.0000 C.ar    1  UNL1        0.1412
     15 C           6.9338   -1.7327    0.0000 C.ar    1  UNL1        0.0236
     16 C           6.0678   -0.2327    0.0000 C.ar    1  UNL1        0.1059
     17 C           6.0678   -1.2327    0.0000 C.ar    1  UNL1        0.1459
     18 C           5.1738    0.3020    0.0000 C.ar    1  UNL1        0.1964
     19 C           4.2678   -1.2535    0.0000 C.ar    1  UNL1        0.1345
     20 C           4.2678   -0.2119    0.0000 C.ar    1  UNL1        0.0263
     21 C           7.7998    1.7673    0.0000 C.3     1  UNL1        0.0788
     22 C           3.4037   -1.7568    0.0000 C.3     1  UNL1        0.1020
     23 H           9.7159   -1.4899    0.0000 H       1  UNL1        0.0765
     24 H           9.2834    0.3813    0.0000 H       1  UNL1        0.0352
     25 H           8.4950    0.6390    0.0000 H       1  UNL1        0.0352
     26 H           9.7097   -1.7327    0.0000 H       1  UNL1        0.0258
     27 H          10.3297   -2.3527    0.0000 H       1  UNL1        0.0258
     28 H          10.9497   -1.7327    0.0000 H       1  UNL1        0.0258
     29 H          10.9497    0.2673    0.0000 H       1  UNL1        0.0258
     30 H          10.3297    0.8873    0.0000 H       1  UNL1        0.0258
     31 H           9.7097    0.2673    0.0000 H       1  UNL1        0.0258
     32 H           6.9338   -2.3527    0.0000 H       1  UNL1        0.0691
     33 H          11.6397   -1.2696    0.0000 H       1  UNL1        0.2103
     34 H           3.7320    0.1002    0.0000 H       1  UNL1        0.0690
     35 H           8.1098    1.2304    0.0000 H       1  UNL1        0.0660
     36 H           8.3368    2.0773    0.0000 H       1  UNL1        0.0660
     37 H           7.4898    2.3043    0.0000 H       1  UNL1        0.0660
     38 H           3.0070   -2.2333    0.0000 H       1  UNL1        0.0638
     39 H           3.8040   -2.2302    0.0000 H       1  UNL1        0.0638
     40 H           2.0000   -1.5722    0.0000 H       1  UNL1        0.2100
@<TRIPOS>BOND
     1     1     7    1
     2     1    11    1
     3     2     8    1
     4     2    33    1
     5     3    14    1
     6     3    21    1
     7     4    17   ar
     8     4    19   ar
     9     5    18    2
    10     6    22    1
    11     6    40    1
    12     7     8    1
    13     7     9    1
    14     7    23    1
    15     8    12    1
    16     8    13    1
    17     9    10    1
    18     9    24    1
    19     9    25    1
    20    10    11   ar
    21    10    14   ar
    22    11    15   ar
    23    12    26    1
    24    12    27    1
    25    12    28    1
    26    13    29    1
    27    13    30    1
    28    13    31    1
    29    14    16   ar
    30    15    17   ar
    31    15    32    1
    32    16    17   ar
    33    16    18   ar
    34    18    20   ar
    35    19    20   ar
    36    19    22    1
    37    20    34    1
    38    21    35    1
    39    21    36    1
    40    21    37    1
    41    22    38    1
    42    22    39    1
