@<TRIPOS>MOLECULE
IMPHY015959
 54 56 0 0 0
SMALL
GASTEIGER

@<TRIPOS>ATOM
      1 O           7.3180    1.7258    0.0000 O.3     1  UNL1       -0.4948
      2 C           3.8000   -1.3193    0.0000 C.3     1  UNL1       -0.0262
      3 C           3.8000   -0.3193    0.0000 C.3     1  UNL1       -0.0035
      4 C           2.9061   -1.8540    0.0000 C.3     1  UNL1       -0.0312
      5 C           2.9061    0.2153    0.0000 C.3     1  UNL1       -0.0433
      6 C           2.0000   -1.3402    0.0000 C.3     1  UNL1       -0.0476
      7 C           4.6660   -1.8193    0.0000 C.3     1  UNL1       -0.0449
      8 C           2.0000   -0.2985    0.0000 C.3     1  UNL1       -0.0518
      9 C           4.6660    0.1807    0.0000 C.ar    1  UNL1       -0.0375
     10 C           5.5321   -1.3193    0.0000 C.3     1  UNL1       -0.0267
     11 C           3.8000    0.6807    0.0000 C.3     1  UNL1       -0.0553
     12 C           5.5321   -0.3193    0.0000 C.ar    1  UNL1       -0.0368
     13 C           2.4161   -2.7258    0.0000 C.3     1  UNL1       -0.0595
     14 C           3.4160   -2.7142    0.0000 C.3     1  UNL1       -0.0595
     15 C           4.6500    1.2222    0.0000 C.ar    1  UNL1       -0.0543
     16 C           6.4421    0.1875    0.0000 C.ar    1  UNL1        0.0003
     17 C           7.3022   -0.3225    0.0000 C.3     1  UNL1       -0.0178
     18 C           6.4501    1.2291    0.0000 C.ar    1  UNL1        0.1238
     19 C           5.5480    1.7499    0.0000 C.ar    1  UNL1       -0.0194
     20 C           8.1740    0.1675    0.0000 C.3     1  UNL1       -0.0585
     21 C           7.2907   -1.3224    0.0000 C.3     1  UNL1       -0.0585
     22 C           7.3219    2.7258    0.0000 C.3     1  UNL1        0.0788
     23 H           3.8048   -1.9393    0.0000 H       1  UNL1        0.0314
     24 H           3.3107    0.6851    0.0000 H       1  UNL1        0.0274
     25 H           2.5124    0.6943    0.0000 H       1  UNL1        0.0274
     26 H           1.3891   -1.2341    0.0000 H       1  UNL1        0.0271
     27 H           1.7909   -1.9238    0.0000 H       1  UNL1        0.0271
     28 H           4.2675   -2.2943    0.0000 H       1  UNL1        0.0271
     29 H           5.0646   -2.2943    0.0000 H       1  UNL1        0.0271
     30 H           1.7909    0.2852    0.0000 H       1  UNL1        0.0266
     31 H           1.3891   -0.4046    0.0000 H       1  UNL1        0.0266
     32 H           5.7441   -1.9020    0.0000 H       1  UNL1        0.0313
     33 H           6.1426   -1.2117    0.0000 H       1  UNL1        0.0313
     34 H           4.4200    0.6807    0.0000 H       1  UNL1        0.0238
     35 H           3.8000    1.3007    0.0000 H       1  UNL1        0.0238
     36 H           3.1800    0.6807    0.0000 H       1  UNL1        0.0238
     37 H           1.8756   -2.4220    0.0000 H       1  UNL1        0.0235
     38 H           2.1123   -3.2662    0.0000 H       1  UNL1        0.0235
     39 H           2.9566   -3.0295    0.0000 H       1  UNL1        0.0235
     40 H           2.8827   -3.0304    0.0000 H       1  UNL1        0.0235
     41 H           3.7322   -3.2475    0.0000 H       1  UNL1        0.0235
     42 H           3.9494   -2.3980    0.0000 H       1  UNL1        0.0235
     43 H           4.1095    1.5259    0.0000 H       1  UNL1        0.0622
     44 H           6.7618   -0.6262    0.0000 H       1  UNL1        0.0345
     45 H           5.5456    2.3699    0.0000 H       1  UNL1        0.0654
     46 H           8.4778   -0.3730    0.0000 H       1  UNL1        0.0235
     47 H           8.7145    0.4712    0.0000 H       1  UNL1        0.0235
     48 H           7.8702    0.7080    0.0000 H       1  UNL1        0.0235
     49 H           6.6707   -1.3152    0.0000 H       1  UNL1        0.0235
     50 H           7.2835   -1.9424    0.0000 H       1  UNL1        0.0235
     51 H           7.9106   -1.3296    0.0000 H       1  UNL1        0.0235
     52 H           7.9419    2.7234    0.0000 H       1  UNL1        0.0660
     53 H           7.3243    3.3458    0.0000 H       1  UNL1        0.0660
     54 H           6.7019    2.7281    0.0000 H       1  UNL1        0.0660
@<TRIPOS>BOND
     1     1    18    1
     2     1    22    1
     3     2     3    1
     4     2     4    1
     5     2     7    1
     6     2    23    1
     7     3     5    1
     8     3     9    1
     9     3    11    1
    10     4     6    1
    11     4    13    1
    12     4    14    1
    13     5     8    1
    14     5    24    1
    15     5    25    1
    16     6     8    1
    17     6    26    1
    18     6    27    1
    19     7    10    1
    20     7    28    1
    21     7    29    1
    22     8    30    1
    23     8    31    1
    24     9    12   ar
    25     9    15   ar
    26    10    12    1
    27    10    32    1
    28    10    33    1
    29    11    34    1
    30    11    35    1
    31    11    36    1
    32    12    16   ar
    33    13    37    1
    34    13    38    1
    35    13    39    1
    36    14    40    1
    37    14    41    1
    38    14    42    1
    39    15    19   ar
    40    15    43    1
    41    16    17    1
    42    16    18   ar
    43    17    20    1
    44    17    21    1
    45    17    44    1
    46    18    19   ar
    47    19    45    1
    48    20    46    1
    49    20    47    1
    50    20    48    1
    51    21    49    1
    52    21    50    1
    53    21    51    1
    54    22    52    1
    55    22    53    1
    56    22    54    1
