@<TRIPOS>MOLECULE
IMPHY013227
 38 40 0 0 0
SMALL
GASTEIGER

@<TRIPOS>ATOM
      1 O           6.0290   -1.0209    0.0000 O.2     1  UNL1       -0.4541
      2 O           4.2690    2.0137    0.0000 O.3     1  UNL1       -0.4939
      3 O           2.5369   -0.9863    0.0000 O.3     1  UNL1       -0.5060
      4 O           6.0174    2.0483    0.0000 O.2     1  UNL1       -0.2869
      5 C           5.1350    0.5137    0.0000 C.ar    1  UNL1        0.1062
      6 C           5.1350   -0.4863    0.0000 C.ar    1  UNL1        0.1491
      7 C           4.2690   -0.9863    0.0000 C.ar    1  UNL1        0.0344
      8 C           4.2690    1.0137    0.0000 C.ar    1  UNL1        0.1408
      9 C           3.4030    0.5137    0.0000 C.ar    1  UNL1        0.0337
     10 C           3.4030   -0.4863    0.0000 C.ar    1  UNL1        0.1296
     11 C           6.0290    1.0484    0.0000 C.ar    1  UNL1        0.1966
     12 C           6.9350   -0.5071    0.0000 C.ar    1  UNL1        0.1392
     13 C           6.9350    0.5346    0.0000 C.ar    1  UNL1        0.0288
     14 C           4.2690   -1.9863    0.0000 C.3     1  UNL1       -0.0327
     15 C           2.5369    1.0137    0.0000 C.3     1  UNL1       -0.0327
     16 C           7.7991   -1.0104    0.0000 C.ar    1  UNL1        0.0174
     17 C           7.7953   -2.0104    0.0000 C.ar    1  UNL1       -0.0511
     18 C           8.6671   -0.5138    0.0000 C.ar    1  UNL1       -0.0511
     19 C           3.4030    2.5137    0.0000 C.3     1  UNL1        0.0788
     20 C           8.6594   -2.5137    0.0000 C.ar    1  UNL1       -0.0611
     21 C           9.5312   -1.0171    0.0000 C.ar    1  UNL1       -0.0611
     22 C           9.5273   -2.0171    0.0000 C.ar    1  UNL1       -0.0617
     23 H           7.4708    0.8466    0.0000 H       1  UNL1        0.0693
     24 H           3.6490   -1.9863    0.0000 H       1  UNL1        0.0280
     25 H           4.2690   -2.6063    0.0000 H       1  UNL1        0.0280
     26 H           4.8890   -1.9863    0.0000 H       1  UNL1        0.0280
     27 H           2.8469    1.5507    0.0000 H       1  UNL1        0.0280
     28 H           2.0000    1.3237    0.0000 H       1  UNL1        0.0280
     29 H           2.2269    0.4768    0.0000 H       1  UNL1        0.0280
     30 H           7.2571   -2.3183    0.0000 H       1  UNL1        0.0625
     31 H           8.6694    0.1062    0.0000 H       1  UNL1        0.0625
     32 H           2.0000   -0.6763    0.0000 H       1  UNL1        0.2922
     33 H           3.7130    3.0507    0.0000 H       1  UNL1        0.0660
     34 H           2.8660    2.8237    0.0000 H       1  UNL1        0.0660
     35 H           3.0930    1.9768    0.0000 H       1  UNL1        0.0660
     36 H           8.6570   -3.1337    0.0000 H       1  UNL1        0.0618
     37 H          10.0693   -0.7092    0.0000 H       1  UNL1        0.0618
     38 H          10.0630   -2.3292    0.0000 H       1  UNL1        0.0618
@<TRIPOS>BOND
     1     1     6   ar
     2     1    12   ar
     3     2     8    1
     4     2    19    1
     5     3    10    1
     6     3    32    1
     7     4    11    2
     8     5     6   ar
     9     5     8   ar
    10     5    11   ar
    11     6     7   ar
    12     7    10   ar
    13     7    14    1
    14     8     9   ar
    15     9    10   ar
    16     9    15    1
    17    11    13   ar
    18    12    13   ar
    19    12    16    1
    20    13    23    1
    21    14    24    1
    22    14    25    1
    23    14    26    1
    24    15    27    1
    25    15    28    1
    26    15    29    1
    27    16    17   ar
    28    16    18   ar
    29    17    20   ar
    30    17    30    1
    31    18    21   ar
    32    18    31    1
    33    19    33    1
    34    19    34    1
    35    19    35    1
    36    20    22   ar
    37    20    36    1
    38    21    22   ar
    39    21    37    1
    40    22    38    1
