@<TRIPOS>MOLECULE
IMPHY013879
 50 53 0 0 0
SMALL
GASTEIGER

@<TRIPOS>ATOM
      1 O           4.2690   -0.3521    0.0000 O.3     1  UNL1       -0.3339
      2 O           6.0010   -0.3521    0.0000 O.3     1  UNL1       -0.4600
      3 O           4.2690   -3.3520    0.0000 O.3     1  UNL1       -0.3864
      4 O           2.5369   -2.3521    0.0000 O.3     1  UNL1       -0.3866
      5 O           6.0010   -2.3521    0.0000 O.3     1  UNL1       -0.3829
      6 O           7.7497   -0.3377    0.0000 O.2     1  UNL1       -0.2864
      7 O           4.2548    2.7271    0.0000 O.3     1  UNL1       -0.5066
      8 O           7.7960    3.6620    0.0000 O.2     1  UNL1       -0.2866
      9 O           9.4976   -0.3925    0.0000 O.3     1  UNL1       -0.5060
     10 C           4.2690   -2.3521    0.0000 C.3     1  UNL1        0.1151
     11 C           3.4030   -1.8520    0.0000 C.3     1  UNL1        0.1096
     12 C           5.1350   -1.8520    0.0000 C.3     1  UNL1        0.1454
     13 C           3.4030   -0.8521    0.0000 C.3     1  UNL1        0.0883
     14 C           5.1350   -0.8521    0.0000 C.3     1  UNL1        0.2307
     15 C           2.5369   -0.3521    0.0000 C.3     1  UNL1       -0.0360
     16 C           6.0010    0.6479    0.0000 C.ar    1  UNL1        0.1389
     17 C           6.9011    1.1722    0.0000 C.ar    1  UNL1        0.0751
     18 C           6.9127    2.1722    0.0000 C.ar    1  UNL1        0.0401
     19 C           7.7613    0.6623    0.0000 C.2     1  UNL1        0.2015
     20 C           8.6330    1.1522    0.0000 C.ar    1  UNL1        0.0745
     21 C           5.1010    1.1722    0.0000 C.ar    1  UNL1        0.0224
     22 C           8.6446    2.1521    0.0000 C.ar    1  UNL1        0.0368
     23 C           7.7844    2.6621    0.0000 C.2     1  UNL1        0.1949
     24 C           6.0250    2.7171    0.0000 C.ar    1  UNL1       -0.0084
     25 C           5.1130    2.2138    0.0000 C.ar    1  UNL1        0.1210
     26 C           9.5207    0.6072    0.0000 C.ar    1  UNL1        0.1286
     27 C           9.5447    2.6764    0.0000 C.ar    1  UNL1       -0.0471
     28 C          10.4447    2.1521    0.0000 C.ar    1  UNL1       -0.0463
     29 C          10.4327    1.1106    0.0000 C.ar    1  UNL1       -0.0165
     30 C          11.3146    2.6454    0.0000 C.3     1  UNL1       -0.0396
     31 H           3.7320   -2.6620    0.0000 H       1  UNL1        0.0648
     32 H           3.4030   -2.4720    0.0000 H       1  UNL1        0.0646
     33 H           5.1350   -2.4720    0.0000 H       1  UNL1        0.0683
     34 H           3.4030   -0.2321    0.0000 H       1  UNL1        0.0621
     35 H           5.1350   -0.2321    0.0000 H       1  UNL1        0.1084
     36 H           2.8469    0.1849    0.0000 H       1  UNL1        0.0255
     37 H           2.0000   -0.0421    0.0000 H       1  UNL1        0.0255
     38 H           2.2269   -0.8890    0.0000 H       1  UNL1        0.0255
     39 H           3.7320   -3.6620    0.0000 H       1  UNL1        0.2100
     40 H           2.0000   -2.0420    0.0000 H       1  UNL1        0.2100
     41 H           6.0010   -2.9720    0.0000 H       1  UNL1        0.2102
     42 H           4.5617    0.8664    0.0000 H       1  UNL1        0.0691
     43 H           6.0393    3.3370    0.0000 H       1  UNL1        0.0661
     44 H           9.5447    3.2964    0.0000 H       1  UNL1        0.0627
     45 H          10.9648    0.7923    0.0000 H       1  UNL1        0.0657
     46 H          11.6204    2.1061    0.0000 H       1  UNL1        0.0278
     47 H          11.8539    2.9513    0.0000 H       1  UNL1        0.0278
     48 H          11.0087    3.1848    0.0000 H       1  UNL1        0.0278
     49 H           4.2644    3.3470    0.0000 H       1  UNL1        0.2921
     50 H          10.0272   -0.7148    0.0000 H       1  UNL1        0.2922
@<TRIPOS>BOND
     1     1    13    1
     2     1    14    1
     3    14     2    1
     4     2    16    1
     5    10     3    1
     6     3    39    1
     7    11     4    1
     8     4    40    1
     9    12     5    1
    10     5    41    1
    11     6    19    2
    12     7    25    1
    13     7    49    1
    14     8    23    2
    15     9    26    1
    16     9    50    1
    17    10    11    1
    18    10    12    1
    19    10    31    1
    20    11    13    1
    21    11    32    1
    22    12    14    1
    23    12    33    1
    24    13    15    1
    25    13    34    1
    26    14    35    1
    27    15    36    1
    28    15    37    1
    29    15    38    1
    30    16    17   ar
    31    16    21   ar
    32    17    18   ar
    33    17    19    1
    34    18    23    1
    35    18    24   ar
    36    19    20    1
    37    20    22   ar
    38    20    26   ar
    39    21    25   ar
    40    21    42    1
    41    22    23    1
    42    22    27   ar
    43    24    25   ar
    44    24    43    1
    45    26    29   ar
    46    27    28   ar
    47    27    44    1
    48    28    29   ar
    49    28    30    1
    50    29    45    1
    51    30    46    1
    52    30    47    1
    53    30    48    1
