@<TRIPOS>MOLECULE
IMPHY000759
 93 97 0 0 0
SMALL
GASTEIGER

@<TRIPOS>ATOM
      1 O          11.1223    1.6396    0.0000 O.3     1  UNL1       -0.4569
      2 O           2.0000   -2.1387    0.0000 O.2     1  UNL1       -0.2967
      3 O           3.8143   -3.9165    0.0000 O.3     1  UNL1       -0.3940
      4 O          10.0707   -0.5588    0.0000 O.3     1  UNL1       -0.4801
      5 O          11.0491    0.2751    0.0000 O.2     1  UNL1       -0.2502
      6 O          10.8282    3.3464    0.0000 O.2     1  UNL1       -0.2453
      7 C           6.5271   -0.5863    0.0000 C.3     1  UNL1       -0.0194
      8 C           5.6610   -0.0863    0.0000 C.3     1  UNL1       -0.0257
      9 C           7.3931   -0.0863    0.0000 C.3     1  UNL1       -0.0051
     10 C           4.7510   -0.5932    0.0000 C.3     1  UNL1       -0.0243
     11 C           4.7430   -1.6348    0.0000 C.3     1  UNL1       -0.0211
     12 C           6.5431   -1.6278    0.0000 C.3     1  UNL1       -0.0463
     13 C           7.3931    0.9137    0.0000 C.2     1  UNL1       -0.0627
     14 C           8.2870    1.4483    0.0000 C.3     1  UNL1        0.0003
     15 C           5.6451   -2.1556    0.0000 C.3     1  UNL1       -0.0482
     16 C           9.1931    0.9345    0.0000 C.3     1  UNL1        0.1107
     17 C           8.2870   -0.6210    0.0000 C.3     1  UNL1       -0.0423
     18 C           5.6610    0.9137    0.0000 C.3     1  UNL1       -0.0306
     19 C           3.8076   -2.1845    0.0000 C.3     1  UNL1        0.0525
     20 C           3.8242   -0.0291    0.0000 C.3     1  UNL1       -0.0404
     21 C           9.1931   -0.1072    0.0000 C.3     1  UNL1       -0.0324
     22 C           7.1698   -1.3524    0.0000 C.3     1  UNL1       -0.0585
     23 C           6.5271    1.4137    0.0000 C.2     1  UNL1       -0.0836
     24 C           7.7352   -1.0260    0.0000 C.3     1  UNL1       -0.0553
     25 C           4.7587    0.4068    0.0000 C.3     1  UNL1       -0.0590
     26 C           8.2619    2.5330    0.0000 C.3     1  UNL1       -0.0401
     27 C          10.1369    1.4697    0.0000 C.3     1  UNL1        0.1201
     28 C           9.1931    3.0900    0.0000 C.3     1  UNL1       -0.0309
     29 C           2.8763   -0.5570    0.0000 C.3     1  UNL1        0.0070
     30 C           2.8680   -1.6420    0.0000 C.2     1  UNL1        0.1417
     31 C          10.1369    2.5547    0.0000 C.3     1  UNL1       -0.0094
     32 C           3.3109   -3.0524    0.0000 C.3     1  UNL1        0.0565
     33 C           4.3109   -3.0486    0.0000 C.3     1  UNL1       -0.0504
     34 C          10.0629    0.4412    0.0000 C.2     1  UNL1        0.3151
     35 C           9.6830    3.9617    0.0000 C.3     1  UNL1       -0.0597
     36 C           8.6831    3.9501    0.0000 C.3     1  UNL1       -0.0597
     37 C          11.4680    2.5779    0.0000 C.2     1  UNL1        0.3349
     38 C          12.4535    2.7478    0.0000 C.2     1  UNL1        0.0293
     39 C          13.0933    1.9793    0.0000 C.3     1  UNL1       -0.0333
     40 C          12.7991    3.6862    0.0000 C.2     1  UNL1       -0.0774
     41 C          12.1593    4.4547    0.0000 C.3     1  UNL1       -0.0461
     42 H           6.3972    0.3387    0.0000 H       1  UNL1        0.0315
     43 H           4.7463   -2.4848    0.0000 H       1  UNL1        0.0316
     44 H           6.7612   -2.2082    0.0000 H       1  UNL1        0.0271
     45 H           7.1523   -1.5123    0.0000 H       1  UNL1        0.0271
     46 H           9.0165    1.8846    0.0000 H       1  UNL1        0.0358
     47 H           5.2478   -2.6316    0.0000 H       1  UNL1        0.0269
     48 H           6.0460   -2.6285    0.0000 H       1  UNL1        0.0269
     49 H           7.8824   -1.0908    0.0000 H       1  UNL1        0.0274
     50 H           8.6806   -1.1000    0.0000 H       1  UNL1        0.0274
     51 H           5.4490    1.4963    0.0000 H       1  UNL1        0.0310
     52 H           5.0504    0.8060    0.0000 H       1  UNL1        0.0310
     53 H           4.2324    0.4376    0.0000 H       1  UNL1        0.0275
     54 H           3.4343    0.4529    0.0000 H       1  UNL1        0.0275
     55 H           9.4022   -0.6908    0.0000 H       1  UNL1        0.0277
     56 H           9.8040   -0.0011    0.0000 H       1  UNL1        0.0277
     57 H           6.6949   -1.7509    0.0000 H       1  UNL1        0.0235
     58 H           7.5684   -1.8273    0.0000 H       1  UNL1        0.0235
     59 H           7.6448   -0.9539    0.0000 H       1  UNL1        0.0235
     60 H           6.5271    2.0337    0.0000 H       1  UNL1        0.0572
     61 H           7.1526   -1.2381    0.0000 H       1  UNL1        0.0238
     62 H           7.9473   -1.6086    0.0000 H       1  UNL1        0.0238
     63 H           8.3178   -0.8139    0.0000 H       1  UNL1        0.0238
     64 H           8.0394    3.1117    0.0000 H       1  UNL1        0.0276
     65 H           7.6537    2.4128    0.0000 H       1  UNL1        0.0276
     66 H           5.3787    0.4020    0.0000 H       1  UNL1        0.0235
     67 H           4.7635    1.0268    0.0000 H       1  UNL1        0.0235
     68 H           4.1388    0.4116    0.0000 H       1  UNL1        0.0235
     69 H          10.3456    0.8859    0.0000 H       1  UNL1        0.0745
     70 H           2.6718    0.0282    0.0000 H       1  UNL1        0.0342
     71 H           2.2647   -0.6584    0.0000 H       1  UNL1        0.0342
     72 H          10.7477    2.4486    0.0000 H       1  UNL1        0.0306
     73 H          10.3459    3.1384    0.0000 H       1  UNL1        0.0306
     74 H           2.8344   -2.6558    0.0000 H       1  UNL1        0.0567
     75 H           2.8375   -3.4528    0.0000 H       1  UNL1        0.0567
     76 H           3.7752   -3.3607    0.0000 H       1  UNL1        0.0240
     77 H           4.6230   -3.5843    0.0000 H       1  UNL1        0.0240
     78 H           4.8466   -2.7365    0.0000 H       1  UNL1        0.0240
     79 H          10.2235    3.6579    0.0000 H       1  UNL1        0.0235
     80 H           9.9868    4.5022    0.0000 H       1  UNL1        0.0235
     81 H           9.1426    4.2655    0.0000 H       1  UNL1        0.0235
     82 H           9.2164    4.2663    0.0000 H       1  UNL1        0.0235
     83 H           8.3669    4.4835    0.0000 H       1  UNL1        0.0235
     84 H           8.1498    3.6340    0.0000 H       1  UNL1        0.0235
     85 H           3.5063   -4.4547    0.0000 H       1  UNL1        0.2094
     86 H          10.6100   -0.8647    0.0000 H       1  UNL1        0.2951
     87 H          12.6168    1.5826    0.0000 H       1  UNL1        0.0280
     88 H          13.4900    1.5028    0.0000 H       1  UNL1        0.0280
     89 H          13.5698    2.3760    0.0000 H       1  UNL1        0.0280
     90 H          13.4101    3.7915    0.0000 H       1  UNL1        0.0574
     91 H          12.6357    4.8514    0.0000 H       1  UNL1        0.0272
     92 H          11.7626    4.9312    0.0000 H       1  UNL1        0.0272
     93 H          11.6828    4.0580    0.0000 H       1  UNL1        0.0272
@<TRIPOS>BOND
     1    27     1    1
     2     1    37    1
     3     2    30    2
     4     3    32    1
     5     3    85    1
     6     4    34    1
     7     4    86    1
     8     5    34    2
     9     6    37    2
    10     7     8    1
    11     7     9    1
    12     7    12    1
    13     7    22    1
    14     8    10    1
    15     8    18    1
    16     8    42    1
    17     9    13    1
    18     9    17    1
    19     9    24    1
    20    10    11    1
    21    10    20    1
    22    10    25    1
    23    11    15    1
    24    11    19    1
    25    11    43    1
    26    12    15    1
    27    12    44    1
    28    12    45    1
    29    13    14    1
    30    13    23    2
    31    14    16    1
    32    14    26    1
    33    14    46    1
    34    15    47    1
    35    15    48    1
    36    16    21    1
    37    16    27    1
    38    16    34    1
    39    17    21    1
    40    17    49    1
    41    17    50    1
    42    18    23    1
    43    18    51    1
    44    18    52    1
    45    19    30    1
    46    19    32    1
    47    19    33    1
    48    20    29    1
    49    20    53    1
    50    20    54    1
    51    21    55    1
    52    21    56    1
    53    22    57    1
    54    22    58    1
    55    22    59    1
    56    23    60    1
    57    24    61    1
    58    24    62    1
    59    24    63    1
    60    25    66    1
    61    25    67    1
    62    25    68    1
    63    26    28    1
    64    26    64    1
    65    26    65    1
    66    27    31    1
    67    27    69    1
    68    28    31    1
    69    28    35    1
    70    28    36    1
    71    29    30    1
    72    29    70    1
    73    29    71    1
    74    31    72    1
    75    31    73    1
    76    32    74    1
    77    32    75    1
    78    33    76    1
    79    33    77    1
    80    33    78    1
    81    35    79    1
    82    35    80    1
    83    35    81    1
    84    36    82    1
    85    36    83    1
    86    36    84    1
    87    37    38    1
    88    38    39    1
    89    38    40    2
    90    39    87    1
    91    39    88    1
    92    39    89    1
    93    40    41    1
    94    40    90    1
    95    41    91    1
    96    41    92    1
    97    41    93    1
