@<TRIPOS>MOLECULE
IMPHY007180
 25 26 0 0 0
SMALL
GASTEIGER

@<TRIPOS>ATOM
      1 O           2.0000   -0.6123    0.0000 O.2     1  UNL1       -0.2757
      2 N           2.8660   -2.1123    0.0000 N.am    1  UNL1       -0.3291
      3 C           4.5981    0.8877    0.0000 C.ar    1  UNL1       -0.0142
      4 C           3.7320    0.3877    0.0000 C.ar    1  UNL1       -0.0309
      5 C           4.5981    1.8877    0.0000 C.ar    1  UNL1       -0.0176
      6 C           3.7320   -0.6123    0.0000 C.3     1  UNL1        0.0495
      7 C           2.8660    0.8877    0.0000 C.ar    1  UNL1       -0.0575
      8 C           5.4920    0.3530    0.0000 C.ar    1  UNL1       -0.0538
      9 C           3.7320    2.3877    0.0000 C.ar    1  UNL1       -0.0540
     10 C           5.4920    2.4223    0.0000 C.ar    1  UNL1       -0.0540
     11 C           2.8660    1.8877    0.0000 C.ar    1  UNL1       -0.0609
     12 C           6.3981    0.8669    0.0000 C.ar    1  UNL1       -0.0612
     13 C           6.3981    1.9085    0.0000 C.ar    1  UNL1       -0.0612
     14 C           2.8660   -1.1123    0.0000 C.2     1  UNL1        0.2148
     15 H           3.9441   -1.1949    0.0000 H       1  UNL1        0.0407
     16 H           4.3426   -0.5047    0.0000 H       1  UNL1        0.0407
     17 H           2.3291    0.5777    0.0000 H       1  UNL1        0.0621
     18 H           5.4848   -0.2670    0.0000 H       1  UNL1        0.0624
     19 H           3.7320    3.0077    0.0000 H       1  UNL1        0.0624
     20 H           5.4848    3.0423    0.0000 H       1  UNL1        0.0624
     21 H           2.3291    2.1977    0.0000 H       1  UNL1        0.0618
     22 H           6.9338    0.5548    0.0000 H       1  UNL1        0.0618
     23 H           6.9338    2.2205    0.0000 H       1  UNL1        0.0618
     24 H           2.3291   -2.4223    0.0000 H       1  UNL1        0.1449
     25 H           3.4030   -2.4223    0.0000 H       1  UNL1        0.1449
@<TRIPOS>BOND
     1     1    14    2
     2     2    14   am
     3     2    24    1
     4     2    25    1
     5     3     4   ar
     6     3     5   ar
     7     3     8   ar
     8     4     6    1
     9     4     7   ar
    10     5     9   ar
    11     5    10   ar
    12     6    14    1
    13     6    15    1
    14     6    16    1
    15     7    11   ar
    16     7    17    1
    17     8    12   ar
    18     8    18    1
    19     9    11   ar
    20     9    19    1
    21    10    13   ar
    22    10    20    1
    23    11    21    1
    24    12    13   ar
    25    12    22    1
    26    13    23    1
