@<TRIPOS>MOLECULE
IMPHY015424
 40 39 0 0 0
SMALL
GASTEIGER

@<TRIPOS>ATOM
      1 O           2.8660   -0.7500    0.0000 O.2     1  UNL1       -0.2977
      2 C           6.3301    0.2500    0.0000 C.3     1  UNL1       -0.0439
      3 C           7.1962    0.7500    0.0000 C.3     1  UNL1       -0.0505
      4 C           8.0622    0.2500    0.0000 C.3     1  UNL1       -0.0526
      5 C           5.4641    0.7500    0.0000 C.3     1  UNL1       -0.0501
      6 C           8.9282    0.7500    0.0000 C.3     1  UNL1       -0.0507
      7 C           9.7942    0.2500    0.0000 C.3     1  UNL1       -0.0467
      8 C           4.5981    0.2500    0.0000 C.3     1  UNL1       -0.0461
      9 C           6.3301   -0.7500    0.0000 C.3     1  UNL1       -0.0624
     10 C           3.7320    0.7500    0.0000 C.3     1  UNL1        0.0056
     11 C          10.6603    0.7500    0.0000 C.3     1  UNL1       -0.0627
     12 C           9.7942   -0.7500    0.0000 C.3     1  UNL1       -0.0627
     13 C           2.8660    0.2500    0.0000 C.2     1  UNL1        0.1303
     14 C           2.0000    0.7500    0.0000 C.3     1  UNL1       -0.0061
     15 H           6.8671   -0.0600    0.0000 H       1  UNL1        0.0298
     16 H           7.5947    1.2250    0.0000 H       1  UNL1        0.0268
     17 H           6.7976    1.2250    0.0000 H       1  UNL1        0.0268
     18 H           7.6636   -0.2249    0.0000 H       1  UNL1        0.0265
     19 H           8.4607   -0.2249    0.0000 H       1  UNL1        0.0265
     20 H           5.8626    1.2250    0.0000 H       1  UNL1        0.0268
     21 H           5.0656    1.2250    0.0000 H       1  UNL1        0.0268
     22 H           9.3267    1.2250    0.0000 H       1  UNL1        0.0268
     23 H           8.5297    1.2250    0.0000 H       1  UNL1        0.0268
     24 H           9.2573   -0.0600    0.0000 H       1  UNL1        0.0295
     25 H           4.1996   -0.2249    0.0000 H       1  UNL1        0.0269
     26 H           4.9966   -0.2249    0.0000 H       1  UNL1        0.0269
     27 H           5.7101   -0.7500    0.0000 H       1  UNL1        0.0232
     28 H           6.3301   -1.3700    0.0000 H       1  UNL1        0.0232
     29 H           6.9501   -0.7500    0.0000 H       1  UNL1        0.0232
     30 H           4.1306    1.2250    0.0000 H       1  UNL1        0.0341
     31 H           3.3335    1.2250    0.0000 H       1  UNL1        0.0341
     32 H          10.9703    0.2131    0.0000 H       1  UNL1        0.0232
     33 H          11.1972    1.0600    0.0000 H       1  UNL1        0.0232
     34 H          10.3503    1.2869    0.0000 H       1  UNL1        0.0232
     35 H           9.1742   -0.7500    0.0000 H       1  UNL1        0.0232
     36 H           9.7942   -1.3700    0.0000 H       1  UNL1        0.0232
     37 H          10.4142   -0.7500    0.0000 H       1  UNL1        0.0232
     38 H           2.3100    1.2869    0.0000 H       1  UNL1        0.0306
     39 H           1.4631    1.0600    0.0000 H       1  UNL1        0.0306
     40 H           1.6900    0.2131    0.0000 H       1  UNL1        0.0306
@<TRIPOS>BOND
     1     1    13    2
     2     2     3    1
     3     2     5    1
     4     2     9    1
     5     2    15    1
     6     3     4    1
     7     3    16    1
     8     3    17    1
     9     4     6    1
    10     4    18    1
    11     4    19    1
    12     5     8    1
    13     5    20    1
    14     5    21    1
    15     6     7    1
    16     6    22    1
    17     6    23    1
    18     7    11    1
    19     7    12    1
    20     7    24    1
    21     8    10    1
    22     8    25    1
    23     8    26    1
    24     9    27    1
    25     9    28    1
    26     9    29    1
    27    10    13    1
    28    10    30    1
    29    10    31    1
    30    11    32    1
    31    11    33    1
    32    11    34    1
    33    12    35    1
    34    12    36    1
    35    12    37    1
    36    13    14    1
    37    14    38    1
    38    14    39    1
    39    14    40    1
