@<TRIPOS>MOLECULE
IMPHY013818
 28 29 0 0 0
SMALL
GASTEIGER

@<TRIPOS>ATOM
      1 O           2.8660   -2.7500    0.0000 O.3     1  UNL1       -0.4951
      2 O           2.0000    1.7500    0.0000 O.2     1  UNL1       -0.2867
      3 C           2.8660    0.2500    0.0000 C.ar    1  UNL1        0.0225
      4 C           3.7320    1.7500    0.0000 C.ar    1  UNL1        0.0223
      5 C           2.8660    1.2500    0.0000 C.2     1  UNL1        0.1931
      6 C           3.7320   -0.2500    0.0000 C.ar    1  UNL1       -0.0475
      7 C           2.0000   -0.2500    0.0000 C.ar    1  UNL1       -0.0475
      8 C           2.8660   -1.7500    0.0000 C.ar    1  UNL1        0.1201
      9 C           3.7320   -1.2500    0.0000 C.ar    1  UNL1       -0.0193
     10 C           2.0000   -1.2500    0.0000 C.ar    1  UNL1       -0.0193
     11 C           4.5981    1.2500    0.0000 C.ar    1  UNL1       -0.0509
     12 C           3.7320    2.7500    0.0000 C.ar    1  UNL1       -0.0509
     13 C           5.4641    1.7500    0.0000 C.ar    1  UNL1       -0.0611
     14 C           4.5981    3.2500    0.0000 C.ar    1  UNL1       -0.0611
     15 C           5.4641    2.7500    0.0000 C.ar    1  UNL1       -0.0617
     16 C           2.0000   -3.2500    0.0000 C.3     1  UNL1        0.0788
     17 H           4.2690    0.0600    0.0000 H       1  UNL1        0.0626
     18 H           1.4631    0.0600    0.0000 H       1  UNL1        0.0626
     19 H           4.2690   -1.5600    0.0000 H       1  UNL1        0.0654
     20 H           1.4631   -1.5600    0.0000 H       1  UNL1        0.0654
     21 H           4.5981    0.6300    0.0000 H       1  UNL1        0.0625
     22 H           3.1951    3.0600    0.0000 H       1  UNL1        0.0625
     23 H           6.0010    1.4400    0.0000 H       1  UNL1        0.0618
     24 H           4.5981    3.8700    0.0000 H       1  UNL1        0.0618
     25 H           6.0010    3.0600    0.0000 H       1  UNL1        0.0618
     26 H           1.6900   -2.7131    0.0000 H       1  UNL1        0.0660
     27 H           1.4631   -3.5600    0.0000 H       1  UNL1        0.0660
     28 H           2.3100   -3.7869    0.0000 H       1  UNL1        0.0660
@<TRIPOS>BOND
     1     1     8    1
     2     1    16    1
     3     2     5    2
     4     3     5    1
     5     3     6   ar
     6     3     7   ar
     7     4     5    1
     8     4    11   ar
     9     4    12   ar
    10     6     9   ar
    11     6    17    1
    12     7    10   ar
    13     7    18    1
    14     8     9   ar
    15     8    10   ar
    16     9    19    1
    17    10    20    1
    18    11    13   ar
    19    11    21    1
    20    12    14   ar
    21    12    22    1
    22    13    15   ar
    23    13    23    1
    24    14    15   ar
    25    14    24    1
    26    15    25    1
    27    16    26    1
    28    16    27    1
    29    16    28    1
