@<TRIPOS>MOLECULE
IMPHY004953
 41 42 0 0 0
SMALL
GASTEIGER

@<TRIPOS>ATOM
      1 O           7.1546    1.0396    0.0000 O.3     1  UNL1       -0.3908
      2 O           5.9641    1.9330    0.0000 O.2     1  UNL1       -0.2970
      3 C           5.4641   -0.9330    0.0000 C.3     1  UNL1       -0.0172
      4 C           5.4641    0.0670    0.0000 C.3     1  UNL1        0.0604
      5 C           6.4103    0.3717    0.0000 C.3     1  UNL1        0.0681
      6 C           6.4103   -1.2377    0.0000 C.3     1  UNL1       -0.0443
      7 C           4.5981    0.5670    0.0000 C.3     1  UNL1       -0.0312
      8 C           4.5981   -1.4330    0.0000 C.3     1  UNL1       -0.0461
      9 C           6.9939   -0.4330    0.0000 C.3     1  UNL1       -0.0254
     10 C           3.7320    0.0670    0.0000 C.3     1  UNL1       -0.0194
     11 C           3.7320   -0.9330    0.0000 C.3     1  UNL1       -0.0460
     12 C           5.4641   -1.9330    0.0000 C.3     1  UNL1       -0.0586
     13 C           5.4641    1.0670    0.0000 C.2     1  UNL1        0.1394
     14 C           2.8660    0.5670    0.0000 C.2     1  UNL1       -0.0766
     15 C           4.5981    1.5670    0.0000 C.3     1  UNL1       -0.0054
     16 C           2.0000    0.0670    0.0000 C.3     1  UNL1       -0.0438
     17 C           2.8660    1.5670    0.0000 C.2     1  UNL1       -0.0994
     18 H           6.1015    0.9093    0.0000 H       1  UNL1        0.0603
     19 H           6.1593   -1.8046    0.0000 H       1  UNL1        0.0272
     20 H           6.9477   -1.5470    0.0000 H       1  UNL1        0.0272
     21 H           4.9966    1.0419    0.0000 H       1  UNL1        0.0281
     22 H           4.1996    1.0419    0.0000 H       1  UNL1        0.0281
     23 H           4.1996   -1.9080    0.0000 H       1  UNL1        0.0271
     24 H           4.9966   -1.9080    0.0000 H       1  UNL1        0.0271
     25 H           7.4548   -0.8477    0.0000 H       1  UNL1        0.0290
     26 H           7.4548   -0.0183    0.0000 H       1  UNL1        0.0290
     27 H           3.7320    0.6870    0.0000 H       1  UNL1        0.0346
     28 H           3.1215   -0.8254    0.0000 H       1  UNL1        0.0271
     29 H           3.5200   -1.5156    0.0000 H       1  UNL1        0.0271
     30 H           4.8441   -1.9330    0.0000 H       1  UNL1        0.0235
     31 H           5.4641   -2.5530    0.0000 H       1  UNL1        0.0235
     32 H           6.0841   -1.9330    0.0000 H       1  UNL1        0.0235
     33 H           7.7440    0.8470    0.0000 H       1  UNL1        0.2098
     34 H           4.9081    2.1039    0.0000 H       1  UNL1        0.0306
     35 H           4.0611    1.8770    0.0000 H       1  UNL1        0.0306
     36 H           4.2881    1.0300    0.0000 H       1  UNL1        0.0306
     37 H           1.6900    0.6039    0.0000 H       1  UNL1        0.0274
     38 H           1.4631   -0.2430    0.0000 H       1  UNL1        0.0274
     39 H           2.3100   -0.4699    0.0000 H       1  UNL1        0.0274
     40 H           3.4030    1.8770    0.0000 H       1  UNL1        0.0534
     41 H           2.3291    1.8770    0.0000 H       1  UNL1        0.0534
@<TRIPOS>BOND
     1     5     1    1
     2     1    33    1
     3     2    13    2
     4     3     4    1
     5     3     6    1
     6     3     8    1
     7     3    12    1
     8     4     5    1
     9     4     7    1
    10     4    13    1
    11     5     9    1
    12     5    18    1
    13     6     9    1
    14     6    19    1
    15     6    20    1
    16     7    10    1
    17     7    21    1
    18     7    22    1
    19     8    11    1
    20     8    23    1
    21     8    24    1
    22     9    25    1
    23     9    26    1
    24    10    11    1
    25    10    14    1
    26    10    27    1
    27    11    28    1
    28    11    29    1
    29    12    30    1
    30    12    31    1
    31    12    32    1
    32    13    15    1
    33    14    16    1
    34    14    17    2
    35    15    34    1
    36    15    35    1
    37    15    36    1
    38    16    37    1
    39    16    38    1
    40    16    39    1
    41    17    40    1
    42    17    41    1
