@<TRIPOS>MOLECULE
IMPHY006129
 84 93 0 0 0
SMALL
GASTEIGER

@<TRIPOS>ATOM
      1 O           8.6657    1.5675    0.0000 O.3     1  UNL1       -0.5057
      2 O           7.8136    2.0594    0.0000 O.3     1  UNL1       -0.5057
      3 O          10.4039   -1.4557    0.0000 O.3     1  UNL1       -0.5056
      4 O           4.3263    2.0532    0.0000 O.3     1  UNL1       -0.5056
      5 O           9.5494   -2.9159    0.0000 O.2     1  UNL1       -0.2864
      6 O           3.4890    0.5831    0.0000 O.2     1  UNL1       -0.2864
      7 O           8.7654   -4.4526    0.0000 O.3     1  UNL1       -0.5060
      8 O           2.5501   -0.8642    0.0000 O.3     1  UNL1       -0.5060
      9 N          11.2805    0.0607    0.0000 N.3     1  UNL1       -0.3091
     10 N           6.9333    3.5736    0.0000 N.3     1  UNL1       -0.3091
     11 C           6.9348   -1.4466    0.0000 C.ar    1  UNL1        0.0005
     12 C           6.0688   -0.9466    0.0000 C.ar    1  UNL1        0.0005
     13 C           7.8008   -0.9466    0.0000 C.ar    1  UNL1        0.0090
     14 C           6.0688    0.0534    0.0000 C.ar    1  UNL1        0.0090
     15 C           7.8008    0.0534    0.0000 C.ar    1  UNL1        0.0366
     16 C           6.9348    0.5534    0.0000 C.ar    1  UNL1        0.0366
     17 C           6.9508   -2.4881    0.0000 C.ar    1  UNL1        0.0056
     18 C           5.1588   -1.4535    0.0000 C.ar    1  UNL1        0.0056
     19 C           8.6603   -1.4414    0.0000 C.ar    1  UNL1        0.0726
     20 C           5.2105    0.5503    0.0000 C.ar    1  UNL1        0.0726
     21 C           6.0528   -3.0159    0.0000 C.ar    1  UNL1       -0.0055
     22 C           5.1507   -2.4951    0.0000 C.ar    1  UNL1       -0.0055
     23 C          10.4153    0.5622    0.0000 C.3     1  UNL1        0.0398
     24 C           6.0682    3.0720    0.0000 C.3     1  UNL1        0.0398
     25 C           9.5484    0.0637    0.0000 C.ar    1  UNL1        0.0535
     26 C           6.0700    2.0720    0.0000 C.ar    1  UNL1        0.0535
     27 C           7.8280   -2.9509    0.0000 C.ar    1  UNL1        0.0721
     28 C           4.3194   -0.9252    0.0000 C.ar    1  UNL1        0.0721
     29 C           8.6716    0.5676    0.0000 C.ar    1  UNL1        0.1334
     30 C           6.9447    1.5646    0.0000 C.ar    1  UNL1        0.1334
     31 C           9.5427   -0.9475    0.0000 C.ar    1  UNL1        0.1364
     32 C           5.1970    1.5615    0.0000 C.ar    1  UNL1        0.1364
     33 C           8.6737   -2.4330    0.0000 C.2     1  UNL1        0.2014
     34 C           4.3450    0.0661    0.0000 C.2     1  UNL1        0.2014
     35 C           5.2012    3.5705    0.0000 C.3     1  UNL1       -0.0331
     36 C          10.4171    1.5622    0.0000 C.3     1  UNL1       -0.0331
     37 C           4.2357   -2.9932    0.0000 C.ar    1  UNL1       -0.0387
     38 C           6.0789   -4.0574    0.0000 C.ar    1  UNL1       -0.0387
     39 C           5.1995    4.5705    0.0000 C.3     1  UNL1       -0.0502
     40 C          11.2840    2.0606    0.0000 C.3     1  UNL1       -0.0502
     41 C           6.0646    5.0720    0.0000 C.3     1  UNL1       -0.0404
     42 C          12.1491    1.5591    0.0000 C.3     1  UNL1       -0.0404
     43 C           3.3932   -1.4021    0.0000 C.ar    1  UNL1        0.1285
     44 C           7.8781   -3.9915    0.0000 C.ar    1  UNL1        0.1285
     45 C           6.9315    4.5736    0.0000 C.3     1  UNL1       -0.0036
     46 C          12.1474    0.5591    0.0000 C.3     1  UNL1       -0.0036
     47 C           3.3510   -2.4431    0.0000 C.ar    1  UNL1       -0.0159
     48 C           6.9977   -4.5484    0.0000 C.ar    1  UNL1       -0.0159
     49 C           5.2277   -4.5822    0.0000 C.3     1  UNL1       -0.0390
     50 C           4.2068   -3.9928    0.0000 C.3     1  UNL1       -0.0390
     51 H          10.4142   -0.0578    0.0000 H       1  UNL1        0.0512
     52 H           6.6056    2.7630    0.0000 H       1  UNL1        0.0512
     53 H          10.2061    2.1452    0.0000 H       1  UNL1        0.0284
     54 H           9.8063    1.4556    0.0000 H       1  UNL1        0.0284
     55 H           4.5905    3.6771    0.0000 H       1  UNL1        0.0284
     56 H           4.9902    2.9875    0.0000 H       1  UNL1        0.0284
     57 H           4.9864    5.1527    0.0000 H       1  UNL1        0.0266
     58 H           4.5891    4.4617    0.0000 H       1  UNL1        0.0266
     59 H          11.6834    2.5349    0.0000 H       1  UNL1        0.0266
     60 H          10.8863    2.5363    0.0000 H       1  UNL1        0.0266
     61 H          11.2793   -0.5593    0.0000 H       1  UNL1        0.1225
     62 H           7.4708    3.2645    0.0000 H       1  UNL1        0.1225
     63 H          12.7595    1.4504    0.0000 H       1  UNL1        0.0277
     64 H          12.3622    2.1413    0.0000 H       1  UNL1        0.0277
     65 H           6.4623    5.5477    0.0000 H       1  UNL1        0.0277
     66 H           5.6652    5.5463    0.0000 H       1  UNL1        0.0277
     67 H          12.3584   -0.0239    0.0000 H       1  UNL1        0.0424
     68 H          12.7581    0.6657    0.0000 H       1  UNL1        0.0424
     69 H           7.5423    4.4670    0.0000 H       1  UNL1        0.0424
     70 H           7.1425    5.1566    0.0000 H       1  UNL1        0.0424
     71 H           7.0204   -5.1680    0.0000 H       1  UNL1        0.0657
     72 H           2.8031   -2.7332    0.0000 H       1  UNL1        0.0657
     73 H           3.5871   -3.9749    0.0000 H       1  UNL1        0.0278
     74 H           4.1889   -4.6126    0.0000 H       1  UNL1        0.0278
     75 H           4.8266   -4.0107    0.0000 H       1  UNL1        0.0278
     76 H           4.9023   -4.0544    0.0000 H       1  UNL1        0.0278
     77 H           4.6999   -4.9075    0.0000 H       1  UNL1        0.0278
     78 H           5.5530   -5.1099    0.0000 H       1  UNL1        0.0278
     79 H           9.2008    1.8807    0.0000 H       1  UNL1        0.2922
     80 H           7.8173    2.6794    0.0000 H       1  UNL1        0.2922
     81 H          10.3981   -2.0757    0.0000 H       1  UNL1        0.2922
     82 H           4.3204    2.6732    0.0000 H       1  UNL1        0.2922
     83 H           8.7929   -5.0720    0.0000 H       1  UNL1        0.2922
     84 H           2.0000   -1.1501    0.0000 H       1  UNL1        0.2922
@<TRIPOS>BOND
     1     1    29    1
     2     1    79    1
     3     2    30    1
     4     2    80    1
     5     3    31    1
     6     3    81    1
     7     4    32    1
     8     4    82    1
     9     5    33    2
    10     6    34    2
    11     7    44    1
    12     7    83    1
    13     8    43    1
    14     8    84    1
    15     9    23    1
    16     9    46    1
    17     9    61    1
    18    10    24    1
    19    10    45    1
    20    10    62    1
    21    11    12   ar
    22    11    13   ar
    23    11    17   ar
    24    12    14   ar
    25    12    18   ar
    26    13    15   ar
    27    13    19   ar
    28    14    16   ar
    29    14    20   ar
    30    15    16   ar
    31    15    29   ar
    32    16    30   ar
    33    17    21   ar
    34    17    27   ar
    35    18    22   ar
    36    18    28   ar
    37    19    31   ar
    38    19    33    1
    39    20    32   ar
    40    20    34    1
    41    21    22   ar
    42    21    38   ar
    43    22    37   ar
    44    23    25    1
    45    23    36    1
    46    23    51    1
    47    24    26    1
    48    24    35    1
    49    24    52    1
    50    25    29   ar
    51    25    31   ar
    52    26    30   ar
    53    26    32   ar
    54    27    33    1
    55    27    44   ar
    56    28    34    1
    57    28    43   ar
    58    35    39    1
    59    35    55    1
    60    35    56    1
    61    36    40    1
    62    36    53    1
    63    36    54    1
    64    37    47   ar
    65    37    50    1
    66    38    48   ar
    67    38    49    1
    68    39    41    1
    69    39    57    1
    70    39    58    1
    71    40    42    1
    72    40    59    1
    73    40    60    1
    74    41    45    1
    75    41    65    1
    76    41    66    1
    77    42    46    1
    78    42    63    1
    79    42    64    1
    80    43    47   ar
    81    44    48   ar
    82    45    69    1
    83    45    70    1
    84    46    67    1
    85    46    68    1
    86    47    72    1
    87    48    71    1
    88    49    76    1
    89    49    77    1
    90    49    78    1
    91    50    73    1
    92    50    74    1
    93    50    75    1
