@<TRIPOS>MOLECULE
IMPHY016824
 66 65 0 0 0
SMALL
GASTEIGER

@<TRIPOS>ATOM
      1 O           3.7320    0.4400    0.0000 O.3     1  UNL1       -0.4606
      2 O           2.8660   -1.0600    0.0000 O.2     1  UNL1       -0.2512
      3 C          13.2583   -0.0600    0.0000 C.3     1  UNL1       -0.0439
      4 C          12.3923    0.4400    0.0000 C.3     1  UNL1       -0.0505
      5 C           9.7942   -0.0600    0.0000 C.3     1  UNL1       -0.0439
      6 C          11.5263   -0.0600    0.0000 C.3     1  UNL1       -0.0526
      7 C          10.6603    0.4400    0.0000 C.3     1  UNL1       -0.0505
      8 C          14.1244    0.4400    0.0000 C.3     1  UNL1       -0.0505
      9 C           8.9282    0.4400    0.0000 C.3     1  UNL1       -0.0502
     10 C          14.9904   -0.0600    0.0000 C.3     1  UNL1       -0.0526
     11 C          15.8564    0.4400    0.0000 C.3     1  UNL1       -0.0507
     12 C          13.2583   -1.0600    0.0000 C.3     1  UNL1       -0.0624
     13 C           8.0622   -0.0600    0.0000 C.3     1  UNL1       -0.0491
     14 C           9.7942   -1.0600    0.0000 C.3     1  UNL1       -0.0624
     15 C          16.7224   -0.0600    0.0000 C.3     1  UNL1       -0.0467
     16 C           7.1962    0.4400    0.0000 C.3     1  UNL1       -0.0319
     17 C          17.5885    0.4400    0.0000 C.3     1  UNL1       -0.0627
     18 C          16.7224   -1.0600    0.0000 C.3     1  UNL1       -0.0627
     19 C           6.3301   -0.0600    0.0000 C.2     1  UNL1       -0.0734
     20 C           6.3301   -1.0600    0.0000 C.3     1  UNL1       -0.0437
     21 C           5.4641    0.4400    0.0000 C.2     1  UNL1       -0.0480
     22 C           4.5981   -0.0600    0.0000 C.3     1  UNL1        0.1109
     23 C           2.8660   -0.0600    0.0000 C.2     1  UNL1        0.3042
     24 C           2.0000    0.4400    0.0000 C.3     1  UNL1        0.0332
     25 H          13.7953   -0.3700    0.0000 H       1  UNL1        0.0298
     26 H          12.7908    0.9149    0.0000 H       1  UNL1        0.0268
     27 H          11.9938    0.9149    0.0000 H       1  UNL1        0.0268
     28 H           9.2573   -0.3700    0.0000 H       1  UNL1        0.0298
     29 H          11.1278   -0.5349    0.0000 H       1  UNL1        0.0265
     30 H          11.9248   -0.5349    0.0000 H       1  UNL1        0.0265
     31 H          11.0588    0.9149    0.0000 H       1  UNL1        0.0268
     32 H          10.2617    0.9149    0.0000 H       1  UNL1        0.0268
     33 H          14.5229    0.9149    0.0000 H       1  UNL1        0.0268
     34 H          13.7258    0.9149    0.0000 H       1  UNL1        0.0268
     35 H           9.3267    0.9149    0.0000 H       1  UNL1        0.0268
     36 H           8.5297    0.9149    0.0000 H       1  UNL1        0.0268
     37 H          14.5919   -0.5349    0.0000 H       1  UNL1        0.0265
     38 H          15.3889   -0.5349    0.0000 H       1  UNL1        0.0265
     39 H          16.2549    0.9149    0.0000 H       1  UNL1        0.0268
     40 H          15.4579    0.9149    0.0000 H       1  UNL1        0.0268
     41 H          12.6383   -1.0600    0.0000 H       1  UNL1        0.0232
     42 H          13.2583   -1.6800    0.0000 H       1  UNL1        0.0232
     43 H          13.8783   -1.0600    0.0000 H       1  UNL1        0.0232
     44 H           7.6636   -0.5349    0.0000 H       1  UNL1        0.0268
     45 H           8.4607   -0.5349    0.0000 H       1  UNL1        0.0268
     46 H           9.1742   -1.0600    0.0000 H       1  UNL1        0.0232
     47 H           9.7942   -1.6800    0.0000 H       1  UNL1        0.0232
     48 H          10.4142   -1.0600    0.0000 H       1  UNL1        0.0232
     49 H          16.1855   -0.3700    0.0000 H       1  UNL1        0.0295
     50 H           7.5947    0.9149    0.0000 H       1  UNL1        0.0310
     51 H           6.7976    0.9149    0.0000 H       1  UNL1        0.0310
     52 H          17.8985   -0.0969    0.0000 H       1  UNL1        0.0232
     53 H          18.1254    0.7500    0.0000 H       1  UNL1        0.0232
     54 H          17.2785    0.9769    0.0000 H       1  UNL1        0.0232
     55 H          16.1024   -1.0600    0.0000 H       1  UNL1        0.0232
     56 H          16.7224   -1.6800    0.0000 H       1  UNL1        0.0232
     57 H          17.3424   -1.0600    0.0000 H       1  UNL1        0.0232
     58 H           5.7101   -1.0600    0.0000 H       1  UNL1        0.0274
     59 H           6.3301   -1.6800    0.0000 H       1  UNL1        0.0274
     60 H           6.9501   -1.0600    0.0000 H       1  UNL1        0.0274
     61 H           5.4641    1.0600    0.0000 H       1  UNL1        0.0605
     62 H           4.1996   -0.5349    0.0000 H       1  UNL1        0.0743
     63 H           4.9966   -0.5349    0.0000 H       1  UNL1        0.0743
     64 H           2.3100    0.9769    0.0000 H       1  UNL1        0.0342
     65 H           1.4631    0.7500    0.0000 H       1  UNL1        0.0342
     66 H           1.6900   -0.0969    0.0000 H       1  UNL1        0.0342
@<TRIPOS>BOND
     1     1    22    1
     2     1    23    1
     3     2    23    2
     4     3     4    1
     5     3     8    1
     6     3    12    1
     7     3    25    1
     8     4     6    1
     9     4    26    1
    10     4    27    1
    11     5     7    1
    12     5     9    1
    13     5    14    1
    14     5    28    1
    15     6     7    1
    16     6    29    1
    17     6    30    1
    18     7    31    1
    19     7    32    1
    20     8    10    1
    21     8    33    1
    22     8    34    1
    23     9    13    1
    24     9    35    1
    25     9    36    1
    26    10    11    1
    27    10    37    1
    28    10    38    1
    29    11    15    1
    30    11    39    1
    31    11    40    1
    32    12    41    1
    33    12    42    1
    34    12    43    1
    35    13    16    1
    36    13    44    1
    37    13    45    1
    38    14    46    1
    39    14    47    1
    40    14    48    1
    41    15    17    1
    42    15    18    1
    43    15    49    1
    44    16    19    1
    45    16    50    1
    46    16    51    1
    47    17    52    1
    48    17    53    1
    49    17    54    1
    50    18    55    1
    51    18    56    1
    52    18    57    1
    53    19    20    1
    54    19    21    2
    55    20    58    1
    56    20    59    1
    57    20    60    1
    58    21    22    1
    59    21    61    1
    60    22    62    1
    61    22    63    1
    62    23    24    1
    63    24    64    1
    64    24    65    1
    65    24    66    1
