@<TRIPOS>MOLECULE
IMPHY001404
 43 45 0 0 0
SMALL
GASTEIGER

@<TRIPOS>ATOM
      1 O           7.2764   -0.5542    0.0000 O.3     1  UNL1       -0.4513
      2 O           3.7320   -0.7495    0.0000 O.3     1  UNL1       -0.5064
      3 O           7.5870    2.0058    0.0000 O.2     1  UNL1       -0.2832
      4 O           8.8600   -3.2136    0.0000 O.3     1  UNL1       -0.5033
      5 O          10.8600   -3.2136    0.0000 O.3     1  UNL1       -0.5033
      6 C           6.3301    0.7505    0.0000 C.ar    1  UNL1        0.0681
      7 C           4.5981    0.7505    0.0000 C.ar    1  UNL1       -0.0013
      8 C           6.3301   -0.2495    0.0000 C.ar    1  UNL1        0.1430
      9 C           5.4641    1.2505    0.0000 C.ar    1  UNL1       -0.0403
     10 C           3.7320    1.2505    0.0000 C.3     1  UNL1       -0.0058
     11 C           4.5981   -0.2495    0.0000 C.ar    1  UNL1        0.1238
     12 C           7.2764    1.0552    0.0000 C.2     1  UNL1        0.2315
     13 C           5.4641   -0.7495    0.0000 C.ar    1  UNL1        0.0231
     14 C           7.8600    0.2505    0.0000 C.2     1  UNL1        0.1761
     15 C           3.7320    2.2505    0.0000 C.2     1  UNL1       -0.0809
     16 C           8.8600    0.2505    0.0000 C.2     1  UNL1       -0.0082
     17 C           9.3600   -0.6155    0.0000 C.ar    1  UNL1       -0.0178
     18 C           2.8660    2.7505    0.0000 C.2     1  UNL1       -0.0793
     19 C           8.8600   -1.4815    0.0000 C.ar    1  UNL1       -0.0093
     20 C          10.3600   -0.6155    0.0000 C.ar    1  UNL1       -0.0508
     21 C           2.8660    3.7505    0.0000 C.3     1  UNL1       -0.0440
     22 C           2.0000    2.2505    0.0000 C.3     1  UNL1       -0.0440
     23 C           9.3600   -2.3476    0.0000 C.ar    1  UNL1        0.1588
     24 C          10.8600   -1.4815    0.0000 C.ar    1  UNL1       -0.0160
     25 C          10.3600   -2.3476    0.0000 C.ar    1  UNL1        0.1582
     26 H           5.4641    1.8705    0.0000 H       1  UNL1        0.0630
     27 H           3.1215    1.3582    0.0000 H       1  UNL1        0.0357
     28 H           3.5200    0.6679    0.0000 H       1  UNL1        0.0357
     29 H           5.4641   -1.3695    0.0000 H       1  UNL1        0.0691
     30 H           4.2690    2.5605    0.0000 H       1  UNL1        0.0575
     31 H           9.1700    0.7875    0.0000 H       1  UNL1        0.0661
     32 H           8.2400   -1.4815    0.0000 H       1  UNL1        0.0661
     33 H          10.6700   -0.0786    0.0000 H       1  UNL1        0.0625
     34 H           3.7320   -1.3695    0.0000 H       1  UNL1        0.2921
     35 H           3.4860    3.7505    0.0000 H       1  UNL1        0.0274
     36 H           1.6900    2.7875    0.0000 H       1  UNL1        0.0274
     37 H           1.4631    1.9405    0.0000 H       1  UNL1        0.0274
     38 H           2.3100    1.7136    0.0000 H       1  UNL1        0.0274
     39 H           2.8660    4.3705    0.0000 H       1  UNL1        0.0274
     40 H           2.2460    3.7505    0.0000 H       1  UNL1        0.0274
     41 H          11.4800   -1.4815    0.0000 H       1  UNL1        0.0655
     42 H           9.1700   -3.7505    0.0000 H       1  UNL1        0.2923
     43 H          11.4800   -3.2136    0.0000 H       1  UNL1        0.2923
@<TRIPOS>BOND
     1     1     8    1
     2     1    14    1
     3     2    11    1
     4     2    34    1
     5     3    12    2
     6     4    23    1
     7     4    42    1
     8     5    25    1
     9     5    43    1
    10     6     8   ar
    11     6     9   ar
    12     6    12    1
    13     7     9   ar
    14     7    10    1
    15     7    11   ar
    16     8    13   ar
    17     9    26    1
    18    10    15    1
    19    10    27    1
    20    10    28    1
    21    11    13   ar
    22    12    14    1
    23    13    29    1
    24    14    16    2
    25    15    18    2
    26    15    30    1
    27    16    17    1
    28    16    31    1
    29    17    19   ar
    30    17    20   ar
    31    18    21    1
    32    18    22    1
    33    19    23   ar
    34    19    32    1
    35    20    24   ar
    36    20    33    1
    37    21    35    1
    38    21    39    1
    39    21    40    1
    40    22    36    1
    41    22    37    1
    42    22    38    1
    43    23    25   ar
    44    24    25   ar
    45    24    41    1
