@<TRIPOS>MOLECULE
IMPHY011567
 49 53 0 0 0
SMALL
GASTEIGER

@<TRIPOS>ATOM
      1 O           8.7180    0.2819    0.0000 O.3     1  UNL1       -0.3712
      2 O           6.4375   -1.7714    0.0000 O.3     1  UNL1       -0.3712
      3 O          12.3668   -0.9079    0.0000 O.3     1  UNL1       -0.4526
      4 O          12.3668   -2.5173    0.0000 O.3     1  UNL1       -0.4526
      5 O           4.5955    2.2141    0.0000 O.3     1  UNL1       -0.4914
      6 O           2.8652    1.2111    0.0000 O.3     1  UNL1       -0.4915
      7 C           7.9089   -1.1194    0.0000 C.3     1  UNL1        0.0205
      8 C           7.2398   -0.3762    0.0000 C.3     1  UNL1        0.0205
      9 C           8.8225   -0.7126    0.0000 C.3     1  UNL1        0.0891
     10 C           6.3327   -0.7829    0.0000 C.3     1  UNL1        0.0891
     11 C           7.7398    0.4898    0.0000 C.3     1  UNL1        0.0544
     12 C           7.4097   -1.9790    0.0000 C.3     1  UNL1        0.0544
     13 C           9.6885   -1.2126    0.0000 C.ar    1  UNL1       -0.0149
     14 C           5.4658   -0.2844    0.0000 C.ar    1  UNL1       -0.0149
     15 C          10.5545   -0.7126    0.0000 C.ar    1  UNL1       -0.0105
     16 C           9.6885   -2.2126    0.0000 C.ar    1  UNL1       -0.0524
     17 C           5.4641    0.7156    0.0000 C.ar    1  UNL1       -0.0107
     18 C           4.6007   -0.7859    0.0000 C.ar    1  UNL1       -0.0524
     19 C          11.4206   -1.2126    0.0000 C.ar    1  UNL1        0.1666
     20 C          10.5545   -2.7126    0.0000 C.ar    1  UNL1       -0.0158
     21 C           4.5972    1.2141    0.0000 C.ar    1  UNL1        0.1618
     22 C           3.7338   -0.2874    0.0000 C.ar    1  UNL1       -0.0160
     23 C          11.4206   -2.2126    0.0000 C.ar    1  UNL1        0.1662
     24 C           3.7320    0.7126    0.0000 C.ar    1  UNL1        0.1615
     25 C          12.9504   -1.7126    0.0000 C.3     1  UNL1        0.2332
     26 C           3.7286    2.7126    0.0000 C.3     1  UNL1        0.0790
     27 C           2.0000    0.7096    0.0000 C.3     1  UNL1        0.0790
     28 H           8.4769   -1.7518    0.0000 H       1  UNL1        0.0356
     29 H           6.6702    0.2547    0.0000 H       1  UNL1        0.0356
     30 H           9.3424   -0.3749    0.0000 H       1  UNL1        0.0650
     31 H           5.8132   -1.1212    0.0000 H       1  UNL1        0.0650
     32 H           7.9314    1.0795    0.0000 H       1  UNL1        0.0564
     33 H           7.1734    0.7420    0.0000 H       1  UNL1        0.0564
     34 H           7.2172   -2.5683    0.0000 H       1  UNL1        0.0564
     35 H           7.9756   -2.2323    0.0000 H       1  UNL1        0.0564
     36 H          10.5545   -0.0926    0.0000 H       1  UNL1        0.0659
     37 H           9.1516   -2.5226    0.0000 H       1  UNL1        0.0622
     38 H           6.0005    1.0265    0.0000 H       1  UNL1        0.0659
     39 H           4.6017   -1.4059    0.0000 H       1  UNL1        0.0622
     40 H          10.5545   -3.3326    0.0000 H       1  UNL1        0.0655
     41 H           3.1974   -0.5983    0.0000 H       1  UNL1        0.0655
     42 H          13.4113   -2.1273    0.0000 H       1  UNL1        0.1166
     43 H          13.4113   -1.2979    0.0000 H       1  UNL1        0.1166
     44 H           4.0377    3.2501    0.0000 H       1  UNL1        0.0660
     45 H           3.1911    3.0217    0.0000 H       1  UNL1        0.0660
     46 H           3.4195    2.1751    0.0000 H       1  UNL1        0.0660
     47 H           1.6891    1.2460    0.0000 H       1  UNL1        0.0660
     48 H           1.4636    0.3987    0.0000 H       1  UNL1        0.0660
     49 H           2.3109    0.1732    0.0000 H       1  UNL1        0.0660
@<TRIPOS>BOND
     1     1     9    1
     2     1    11    1
     3     2    10    1
     4     2    12    1
     5     3    19    1
     6     3    25    1
     7     4    23    1
     8     4    25    1
     9     5    21    1
    10     5    26    1
    11     6    24    1
    12     6    27    1
    13     7     8    1
    14     7     9    1
    15     7    12    1
    16     7    28    1
    17     8    10    1
    18     8    11    1
    19     8    29    1
    20     9    13    1
    21     9    30    1
    22    10    14    1
    23    10    31    1
    24    11    32    1
    25    11    33    1
    26    12    34    1
    27    12    35    1
    28    13    15   ar
    29    13    16   ar
    30    14    17   ar
    31    14    18   ar
    32    15    19   ar
    33    15    36    1
    34    16    20   ar
    35    16    37    1
    36    17    21   ar
    37    17    38    1
    38    18    22   ar
    39    18    39    1
    40    19    23   ar
    41    20    23   ar
    42    20    40    1
    43    21    24   ar
    44    22    24   ar
    45    22    41    1
    46    25    42    1
    47    25    43    1
    48    26    44    1
    49    26    45    1
    50    26    46    1
    51    27    47    1
    52    27    48    1
    53    27    49    1
