@<TRIPOS>MOLECULE
IMPHY000003
 41 43 0 0 0
SMALL
GASTEIGER

@<TRIPOS>ATOM
      1 O           2.3337   -0.7846    0.0000 O.3     1  UNL1       -0.3466
      2 O           2.6067    0.9706    0.0000 O.3     1  UNL1       -0.3664
      3 C           4.7296    0.2154    0.0000 C.3     1  UNL1       -0.0173
      4 C           5.5956   -0.2846    0.0000 C.3     1  UNL1       -0.0263
      5 C           6.5056    0.2222    0.0000 C.3     1  UNL1       -0.0313
      6 C           3.8636   -0.2846    0.0000 C.3     1  UNL1        0.0388
      7 C           4.7135    1.2569    0.0000 C.3     1  UNL1       -0.0466
      8 C           6.5136    1.2638    0.0000 C.3     1  UNL1       -0.0476
      9 C           5.5956   -1.2846    0.0000 C.3     1  UNL1       -0.0306
     10 C           5.6116    1.7846    0.0000 C.3     1  UNL1       -0.0520
     11 C           3.8636   -1.2846    0.0000 C.2     1  UNL1       -0.0396
     12 C           3.8636    0.7154    0.0000 C.3     1  UNL1       -0.0586
     13 C           2.9173    0.0201    0.0000 C.3     1  UNL1        0.1636
     14 C           4.7296   -1.7846    0.0000 C.2     1  UNL1       -0.0819
     15 C           7.5055    0.2107    0.0000 C.3     1  UNL1       -0.0595
     16 C           6.9956   -0.6495    0.0000 C.3     1  UNL1       -0.0595
     17 C           2.9173   -1.5894    0.0000 C.3     1  UNL1        0.0722
     18 H           6.3284   -0.7153    0.0000 H       1  UNL1        0.0314
     19 H           4.5997   -0.7096    0.0000 H       1  UNL1        0.0401
     20 H           4.4955    1.8373    0.0000 H       1  UNL1        0.0271
     21 H           4.1044    1.1414    0.0000 H       1  UNL1        0.0271
     22 H           7.1237    1.1530    0.0000 H       1  UNL1        0.0271
     23 H           6.7272    1.8459    0.0000 H       1  UNL1        0.0271
     24 H           5.8077   -1.8672    0.0000 H       1  UNL1        0.0310
     25 H           6.2062   -1.1770    0.0000 H       1  UNL1        0.0310
     26 H           6.0089    2.2606    0.0000 H       1  UNL1        0.0266
     27 H           5.2106    2.2575    0.0000 H       1  UNL1        0.0266
     28 H           4.1736    1.2523    0.0000 H       1  UNL1        0.0235
     29 H           3.3266    1.0254    0.0000 H       1  UNL1        0.0235
     30 H           3.5536    0.1784    0.0000 H       1  UNL1        0.0235
     31 H           2.3048    0.1163    0.0000 H       1  UNL1        0.0914
     32 H           4.7296   -2.4046    0.0000 H       1  UNL1        0.0573
     33 H           7.4984   -0.4093    0.0000 H       1  UNL1        0.0235
     34 H           8.1255    0.2035    0.0000 H       1  UNL1        0.0235
     35 H           7.5127    0.8306    0.0000 H       1  UNL1        0.0235
     36 H           6.4551   -0.9533    0.0000 H       1  UNL1        0.0235
     37 H           7.2993   -1.1900    0.0000 H       1  UNL1        0.0235
     38 H           7.5360   -0.3458    0.0000 H       1  UNL1        0.0235
     39 H           2.3800   -1.8986    0.0000 H       1  UNL1        0.0608
     40 H           3.1684   -2.1563    0.0000 H       1  UNL1        0.0608
     41 H           2.0000    1.0985    0.0000 H       1  UNL1        0.2125
@<TRIPOS>BOND
     1     1    13    1
     2     1    17    1
     3    13     2    1
     4     2    41    1
     5     3     4    1
     6     3     6    1
     7     3     7    1
     8     3    12    1
     9     4     5    1
    10     4     9    1
    11     4    18    1
    12     5     8    1
    13     5    15    1
    14     5    16    1
    15     6    11    1
    16     6    13    1
    17     6    19    1
    18     7    10    1
    19     7    20    1
    20     7    21    1
    21     8    10    1
    22     8    22    1
    23     8    23    1
    24     9    14    1
    25     9    24    1
    26     9    25    1
    27    10    26    1
    28    10    27    1
    29    11    14    2
    30    11    17    1
    31    12    28    1
    32    12    29    1
    33    12    30    1
    34    13    31    1
    35    14    32    1
    36    15    33    1
    37    15    34    1
    38    15    35    1
    39    16    36    1
    40    16    37    1
    41    16    38    1
    42    17    39    1
    43    17    40    1
