@<TRIPOS>MOLECULE
IMPHY015574
 45 44 0 0 0
SMALL
GASTEIGER

@<TRIPOS>ATOM
      1 O           8.9282    0.7500    0.0000 O.3     1  UNL1       -0.4646
      2 O           9.7942   -0.7500    0.0000 O.2     1  UNL1       -0.2509
      3 C           6.3301    0.2500    0.0000 C.3     1  UNL1       -0.0405
      4 C           5.4641    0.7500    0.0000 C.3     1  UNL1       -0.0469
      5 C           7.1962    0.7500    0.0000 C.3     1  UNL1       -0.0159
      6 C           4.5981    0.2500    0.0000 C.3     1  UNL1       -0.0343
      7 C           6.3301   -0.7500    0.0000 C.3     1  UNL1       -0.0623
      8 C           8.0622    0.2500    0.0000 C.3     1  UNL1        0.0927
      9 C           3.7320    0.7500    0.0000 C.2     1  UNL1       -0.0853
     10 C          10.6603    0.7500    0.0000 C.3     1  UNL1        0.0449
     11 C          11.5263    0.2500    0.0000 C.3     1  UNL1       -0.0432
     12 C           2.8660    0.2500    0.0000 C.2     1  UNL1       -0.0796
     13 C           9.7942    0.2500    0.0000 C.2     1  UNL1        0.3071
     14 C          12.3923    0.7500    0.0000 C.3     1  UNL1       -0.0554
     15 C           2.0000    0.7500    0.0000 C.3     1  UNL1       -0.0440
     16 C           2.8660   -0.7500    0.0000 C.3     1  UNL1       -0.0440
     17 C          13.2583    0.2500    0.0000 C.3     1  UNL1       -0.0653
     18 H           6.8671   -0.0600    0.0000 H       1  UNL1        0.0299
     19 H           5.8626    1.2250    0.0000 H       1  UNL1        0.0271
     20 H           5.0656    1.2250    0.0000 H       1  UNL1        0.0271
     21 H           7.5947    1.2250    0.0000 H       1  UNL1        0.0301
     22 H           6.7976    1.2250    0.0000 H       1  UNL1        0.0301
     23 H           4.1996   -0.2249    0.0000 H       1  UNL1        0.0307
     24 H           4.9966   -0.2249    0.0000 H       1  UNL1        0.0307
     25 H           5.7101   -0.7500    0.0000 H       1  UNL1        0.0232
     26 H           6.3301   -1.3700    0.0000 H       1  UNL1        0.0232
     27 H           6.9501   -0.7500    0.0000 H       1  UNL1        0.0232
     28 H           7.6636   -0.2249    0.0000 H       1  UNL1        0.0697
     29 H           8.4607   -0.2249    0.0000 H       1  UNL1        0.0697
     30 H           3.7320    1.3700    0.0000 H       1  UNL1        0.0571
     31 H          11.0588    1.2250    0.0000 H       1  UNL1        0.0377
     32 H          10.2617    1.2250    0.0000 H       1  UNL1        0.0377
     33 H          11.1278   -0.2249    0.0000 H       1  UNL1        0.0270
     34 H          11.9248   -0.2249    0.0000 H       1  UNL1        0.0270
     35 H          12.7908    1.2250    0.0000 H       1  UNL1        0.0263
     36 H          11.9938    1.2250    0.0000 H       1  UNL1        0.0263
     37 H           2.3100    1.2869    0.0000 H       1  UNL1        0.0274
     38 H           1.4631    1.0600    0.0000 H       1  UNL1        0.0274
     39 H           1.6900    0.2131    0.0000 H       1  UNL1        0.0274
     40 H           2.2460   -0.7500    0.0000 H       1  UNL1        0.0274
     41 H           2.8660   -1.3700    0.0000 H       1  UNL1        0.0274
     42 H           3.4860   -0.7500    0.0000 H       1  UNL1        0.0274
     43 H          12.9483   -0.2869    0.0000 H       1  UNL1        0.0230
     44 H          13.7953   -0.0600    0.0000 H       1  UNL1        0.0230
     45 H          13.5683    0.7869    0.0000 H       1  UNL1        0.0230
@<TRIPOS>BOND
     1     1     8    1
     2     1    13    1
     3     2    13    2
     4     3     4    1
     5     3     5    1
     6     3     7    1
     7     3    18    1
     8     4     6    1
     9     4    19    1
    10     4    20    1
    11     5     8    1
    12     5    21    1
    13     5    22    1
    14     6     9    1
    15     6    23    1
    16     6    24    1
    17     7    25    1
    18     7    26    1
    19     7    27    1
    20     8    28    1
    21     8    29    1
    22     9    12    2
    23     9    30    1
    24    10    11    1
    25    10    13    1
    26    10    31    1
    27    10    32    1
    28    11    14    1
    29    11    33    1
    30    11    34    1
    31    12    15    1
    32    12    16    1
    33    14    17    1
    34    14    35    1
    35    14    36    1
    36    15    37    1
    37    15    38    1
    38    15    39    1
    39    16    40    1
    40    16    41    1
    41    16    42    1
    42    17    43    1
    43    17    44    1
    44    17    45    1
