@<TRIPOS>MOLECULE
IMPHY008516
 100 103 0 0 0
SMALL
GASTEIGER

@<TRIPOS>ATOM
      1 CL          6.5921    1.2832    0.0000 Cl      1  UNL1       -0.0778
      2 O           5.3987    0.4168    0.0000 O.3     1  UNL1       -0.3608
      3 O           5.2970   -1.0862    0.0000 O.3     1  UNL1       -0.4566
      4 O           4.1154    3.1583    0.0000 O.3     1  UNL1       -0.4465
      5 O           5.8475    5.1583    0.0000 O.3     1  UNL1       -0.3686
      6 O           7.1361    5.5646    0.0000 O.3     1  UNL1       -0.3712
      7 O           8.0230   -2.3388    0.0000 O.2     1  UNL1       -0.2751
      8 O           3.2494    4.6583    0.0000 O.2     1  UNL1       -0.2264
      9 O           6.2276   -2.5470    0.0000 O.2     1  UNL1       -0.2487
     10 O           2.8104   -3.6971    0.0000 O.2     1  UNL1       -0.2753
     11 O           6.5920    2.3058    0.0000 O.3     1  UNL1       -0.4936
     12 N           4.9814    4.6583    0.0000 N.am    1  UNL1       -0.2504
     13 N           8.3475   -0.7078    0.0000 N.am    1  UNL1       -0.2729
     14 N           4.5408   -3.6216    0.0000 N.am    1  UNL1       -0.2911
     15 C           6.3992    0.4171    0.0000 C.3     1  UNL1        0.1306
     16 C           5.8992    1.2831    0.0000 C.3     1  UNL1        0.0977
     17 C           4.9814    1.6583    0.0000 C.3     1  UNL1        0.0226
     18 C           6.1404   -0.5488    0.0000 C.3     1  UNL1        0.1423
     19 C           4.9814    2.6583    0.0000 C.3     1  UNL1        0.1139
     20 C           7.2653   -0.0828    0.0000 C.3     1  UNL1       -0.0298
     21 C           3.9815    1.6714    0.0000 C.3     1  UNL1       -0.0566
     22 C           5.8475    3.1583    0.0000 C.3     1  UNL1        0.0335
     23 C           6.6404   -1.4149    0.0000 C.3     1  UNL1        0.0644
     24 C           5.8475    4.1583    0.0000 C.3     1  UNL1        0.1684
     25 C           6.7135    4.6583    0.0000 C.3     1  UNL1        0.1223
     26 C           7.6404   -1.4149    0.0000 C.2     1  UNL1        0.2232
     27 C           4.1154    4.1583    0.0000 C.2     1  UNL1        0.4027
     28 C           5.3406   -2.0852    0.0000 C.2     1  UNL1        0.3279
     29 C           4.4972   -2.6225    0.0000 C.3     1  UNL1        0.1198
     30 C           7.5795    4.1583    0.0000 C.2     1  UNL1       -0.0513
     31 C           8.3475    0.2922    0.0000 C.ar    1  UNL1        0.0581
     32 C           9.2713   -1.0904    0.0000 C.3     1  UNL1        0.0083
     33 C           3.6102   -2.1608    0.0000 C.3     1  UNL1       -0.0360
     34 C           8.5795    4.1583    0.0000 C.2     1  UNL1       -0.0632
     35 C           8.1323    5.6517    0.0000 C.3     1  UNL1        0.0374
     36 C           9.2135    0.7922    0.0000 C.ar    1  UNL1       -0.0351
     37 C           7.4619    0.7899    0.0000 C.ar    1  UNL1        0.1038
     38 C           3.6974   -4.1588    0.0000 C.2     1  UNL1        0.2186
     39 C           5.4278   -4.0833    0.0000 C.3     1  UNL1        0.0040
     40 C           9.0795    3.2922    0.0000 C.2     1  UNL1       -0.0627
     41 C           9.2135    1.7922    0.0000 C.ar    1  UNL1       -0.0381
     42 C           3.7410   -5.1579    0.0000 C.3     1  UNL1        0.0301
     43 C          10.0795    2.2922    0.0000 C.3     1  UNL1       -0.0063
     44 C          10.0795    3.2922    0.0000 C.2     1  UNL1       -0.0683
     45 C           7.4580    1.8058    0.0000 C.ar    1  UNL1        0.1404
     46 C           8.3397    2.3103    0.0000 C.ar    1  UNL1       -0.0149
     47 C           2.8976   -5.6952    0.0000 C.3     1  UNL1       -0.0544
     48 C           4.6280   -5.6196    0.0000 C.3     1  UNL1       -0.0544
     49 C          10.7866    3.9993    0.0000 C.3     1  UNL1       -0.0432
     50 C           6.5920    3.3058    0.0000 C.3     1  UNL1        0.0789
     51 H           6.3244    2.0191    0.0000 H       1  UNL1        0.0630
     52 H           4.5767    1.1886    0.0000 H       1  UNL1        0.0360
     53 H           5.5257   -0.4679    0.0000 H       1  UNL1        0.0769
     54 H           4.2453    2.2333    0.0000 H       1  UNL1        0.0739
     55 H           7.5752    0.4542    0.0000 H       1  UNL1        0.0259
     56 H           7.8022   -0.3927    0.0000 H       1  UNL1        0.0259
     57 H           6.9553   -0.6198    0.0000 H       1  UNL1        0.0259
     58 H           3.9734    1.0514    0.0000 H       1  UNL1        0.0234
     59 H           3.3616    1.6795    0.0000 H       1  UNL1        0.0234
     60 H           3.9896    2.2913    0.0000 H       1  UNL1        0.0234
     61 H           6.4580    3.2659    0.0000 H       1  UNL1        0.0346
     62 H           6.0595    2.5756    0.0000 H       1  UNL1        0.0346
     63 H           6.7480   -2.0255    0.0000 H       1  UNL1        0.0396
     64 H           6.0578   -1.6269    0.0000 H       1  UNL1        0.0396
     65 H           6.5530    5.2571    0.0000 H       1  UNL1        0.0686
     66 H           4.6714    5.1952    0.0000 H       1  UNL1        0.1549
     67 H           5.5375    5.6952    0.0000 H       1  UNL1        0.2121
     68 H           5.0471   -2.9088    0.0000 H       1  UNL1        0.0613
     69 H           7.4190    3.5594    0.0000 H       1  UNL1        0.0599
     70 H           9.5086   -0.5176    0.0000 H       1  UNL1        0.0433
     71 H           9.8442   -1.3277    0.0000 H       1  UNL1        0.0433
     72 H           9.0341   -1.6633    0.0000 H       1  UNL1        0.0433
     73 H           3.3239   -2.7107    0.0000 H       1  UNL1        0.0253
     74 H           3.0602   -1.8745    0.0000 H       1  UNL1        0.0253
     75 H           3.8965   -1.6108    0.0000 H       1  UNL1        0.0253
     76 H           8.8895    4.6952    0.0000 H       1  UNL1        0.0615
     77 H           8.0783    6.2694    0.0000 H       1  UNL1        0.0524
     78 H           8.7499    5.7058    0.0000 H       1  UNL1        0.0524
     79 H           8.1863    5.0341    0.0000 H       1  UNL1        0.0524
     80 H           9.7504    0.4822    0.0000 H       1  UNL1        0.0639
     81 H           5.7141   -3.5334    0.0000 H       1  UNL1        0.0429
     82 H           5.9778   -4.3696    0.0000 H       1  UNL1        0.0429
     83 H           5.1415   -4.6332    0.0000 H       1  UNL1        0.0429
     84 H           8.7695    2.7553    0.0000 H       1  UNL1        0.0617
     85 H           3.7681   -5.7773    0.0000 H       1  UNL1        0.0389
     86 H          10.6901    2.3999    0.0000 H       1  UNL1        0.0358
     87 H          10.2916    1.7096    0.0000 H       1  UNL1        0.0358
     88 H           8.3445    2.9303    0.0000 H       1  UNL1        0.0657
     89 H           4.9143   -5.0697    0.0000 H       1  UNL1        0.0237
     90 H           5.1780   -5.9059    0.0000 H       1  UNL1        0.0237
     91 H           4.3418   -6.1696    0.0000 H       1  UNL1        0.0237
     92 H           3.2308   -6.2181    0.0000 H       1  UNL1        0.0237
     93 H           2.3747   -6.0283    0.0000 H       1  UNL1        0.0237
     94 H           2.5645   -5.1723    0.0000 H       1  UNL1        0.0237
     95 H          10.3482    4.4377    0.0000 H       1  UNL1        0.0275
     96 H          11.2250    4.4377    0.0000 H       1  UNL1        0.0275
     97 H          11.2250    3.5609    0.0000 H       1  UNL1        0.0275
     98 H           5.9720    3.3058    0.0000 H       1  UNL1        0.0660
     99 H           6.5920    3.9258    0.0000 H       1  UNL1        0.0660
    100 H           7.2120    3.3058    0.0000 H       1  UNL1        0.0660
@<TRIPOS>BOND
     1     1    37    1
     2     2    15    1
     3     2    16    1
     4    18     3    1
     5     3    28    1
     6     4    19    1
     7     4    27    1
     8    24     5    1
     9     5    67    1
    10    25     6    1
    11     6    35    1
    12     7    26    2
    13     8    27    2
    14     9    28    2
    15    10    38    2
    16    11    45    1
    17    11    50    1
    18    12    24    1
    19    12    27   am
    20    12    66    1
    21    13    26   am
    22    13    31    1
    23    13    32    1
    24    14    29    1
    25    14    38   am
    26    14    39    1
    27    15    16    1
    28    15    18    1
    29    15    20    1
    30    16    17    1
    31    16    51    1
    32    17    19    1
    33    17    21    1
    34    17    52    1
    35    18    23    1
    36    18    53    1
    37    19    22    1
    38    19    54    1
    39    20    55    1
    40    20    56    1
    41    20    57    1
    42    21    58    1
    43    21    59    1
    44    21    60    1
    45    22    24    1
    46    22    61    1
    47    22    62    1
    48    23    26    1
    49    23    63    1
    50    23    64    1
    51    24    25    1
    52    25    30    1
    53    25    65    1
    54    28    29    1
    55    29    33    1
    56    29    68    1
    57    30    34    2
    58    30    69    1
    59    31    36   ar
    60    31    37   ar
    61    32    70    1
    62    32    71    1
    63    32    72    1
    64    33    73    1
    65    33    74    1
    66    33    75    1
    67    34    40    1
    68    34    76    1
    69    35    77    1
    70    35    78    1
    71    35    79    1
    72    36    41   ar
    73    36    80    1
    74    37    45   ar
    75    38    42    1
    76    39    81    1
    77    39    82    1
    78    39    83    1
    79    40    44    2
    80    40    84    1
    81    41    43    1
    82    41    46   ar
    83    42    47    1
    84    42    48    1
    85    42    85    1
    86    43    44    1
    87    43    86    1
    88    43    87    1
    89    44    49    1
    90    45    46   ar
    91    46    88    1
    92    47    92    1
    93    47    93    1
    94    47    94    1
    95    48    89    1
    96    48    90    1
    97    48    91    1
    98    49    95    1
    99    49    96    1
   100    49    97    1
   101    50    98    1
   102    50    99    1
   103    50   100    1
