@<TRIPOS>MOLECULE
IMPHY012354
 28 29 0 0 0
SMALL
GASTEIGER

@<TRIPOS>ATOM
      1 O           2.5369    0.0103    0.0000 O.3     1  UNL1       -0.5067
      2 N           6.0812   -1.7944    0.0000 N.ar    1  UNL1       -0.3604
      3 N           7.6811    1.9223    0.0000 N.3     1  UNL1       -0.3187
      4 C           6.0812   -0.1850    0.0000 C.ar    1  UNL1       -0.0210
      5 C           6.3919    0.7656    0.0000 C.3     1  UNL1       -0.0131
      6 C           5.1350   -0.4897    0.0000 C.ar    1  UNL1        0.0063
      7 C           5.1350   -1.4897    0.0000 C.ar    1  UNL1        0.0470
      8 C           7.3704    0.9718    0.0000 C.3     1  UNL1       -0.0003
      9 C           6.6648   -0.9897    0.0000 C.ar    1  UNL1        0.0059
     10 C           4.2690    0.0103    0.0000 C.ar    1  UNL1       -0.0108
     11 C           4.2690   -1.9897    0.0000 C.ar    1  UNL1       -0.0343
     12 C           3.4030   -0.4897    0.0000 C.ar    1  UNL1        0.1176
     13 C           3.4030   -1.4897    0.0000 C.ar    1  UNL1       -0.0182
     14 C           8.6596    2.1285    0.0000 C.3     1  UNL1       -0.0158
     15 H           6.3713    1.3852    0.0000 H       1  UNL1        0.0326
     16 H           5.7781    0.8529    0.0000 H       1  UNL1        0.0326
     17 H           7.3910    0.3521    0.0000 H       1  UNL1        0.0427
     18 H           7.9842    0.8844    0.0000 H       1  UNL1        0.0427
     19 H           7.2848   -0.9897    0.0000 H       1  UNL1        0.0810
     20 H           6.2738   -2.3838    0.0000 H       1  UNL1        0.1653
     21 H           4.2690    0.6303    0.0000 H       1  UNL1        0.0661
     22 H           4.2690   -2.6097    0.0000 H       1  UNL1        0.0639
     23 H           7.2670    2.3838    0.0000 H       1  UNL1        0.1216
     24 H           2.8660   -1.7997    0.0000 H       1  UNL1        0.0655
     25 H           8.7874    1.5218    0.0000 H       1  UNL1        0.0388
     26 H           9.2662    2.2564    0.0000 H       1  UNL1        0.0388
     27 H           8.5317    2.7352    0.0000 H       1  UNL1        0.0388
     28 H           2.0000   -0.2997    0.0000 H       1  UNL1        0.2921
@<TRIPOS>BOND
     1     1    12    1
     2     1    28    1
     3     2     7   ar
     4     2     9   ar
     5     2    20    1
     6     3     8    1
     7     3    14    1
     8     3    23    1
     9     4     5    1
    10     4     6   ar
    11     4     9   ar
    12     5     8    1
    13     5    15    1
    14     5    16    1
    15     6     7   ar
    16     6    10   ar
    17     7    11   ar
    18     8    17    1
    19     8    18    1
    20     9    19    1
    21    10    12   ar
    22    10    21    1
    23    11    13   ar
    24    11    22    1
    25    12    13   ar
    26    13    24    1
    27    14    25    1
    28    14    26    1
    29    14    27    1
