@<TRIPOS>MOLECULE
IMPHY008233
 20 19 0 0 0
SMALL
GASTEIGER

@<TRIPOS>ATOM
      1 O           2.5369   -0.2500    0.0000 O.3     2  ALA2       -0.4793
      2 O           6.0010   -1.2500    0.0000 O.2     1  GLY1       -0.2744
      3 OXT         3.4030    1.2500    0.0000 O.2     2  ALA2       -0.2489
      4 N           5.1350    0.2500    0.0000 N.am    2  ALA2       -0.3015
      5 N           7.7331   -0.2500    0.0000 N.3     1  GLY1       -0.3225
      6 CA          4.2690   -0.2500    0.0000 C.3     2  ALA2        0.1174
      7 CB          4.2690   -1.2500    0.0000 C.3     2  ALA2       -0.0362
      8 C           6.0010   -0.2500    0.0000 C.2     1  GLY1        0.2273
      9 C           3.4030    0.2500    0.0000 C.2     2  ALA2        0.3250
     10 CA          6.8671    0.2500    0.0000 C.3     1  GLY1        0.0707
     11 HA          4.2690    0.3700    0.0000 H       2  ALA2        0.0611
     12 H           5.1350    0.8700    0.0000 H       2  ALA2        0.1495
     13 HB1         3.6490   -1.2500    0.0000 H       2  ALA2        0.0253
     14 HB2         4.2690   -1.8700    0.0000 H       2  ALA2        0.0253
     15 HB3         4.8890   -1.2500    0.0000 H       2  ALA2        0.0253
     16 HA1         7.2656    0.7249    0.0000 H       1  GLY1        0.0518
     17 HA2         6.4685    0.7249    0.0000 H       1  GLY1        0.0518
     18 H1          8.2700    0.0600    0.0000 H       1  GLY1        0.1186
     19 H2          7.7331   -0.8700    0.0000 H       1  GLY1        0.1186
     20 H           2.0000    0.0600    0.0000 H       2  ALA2        0.2951
@<TRIPOS>BOND
     1     1     9    1
     2     1    20    1
     3     2     8    2
     4     3     9    2
     5     6     4    1
     6     4     8   am
     7     4    12    1
     8     5    10    1
     9     5    18    1
    10     5    19    1
    11     6     7    1
    12     6     9    1
    13     6    11    1
    14     7    13    1
    15     7    14    1
    16     7    15    1
    17     8    10    1
    18    10    16    1
    19    10    17    1
