@<TRIPOS>MOLECULE
IMPHY012741
 96 100 0 0 0
SMALL
GASTEIGER

@<TRIPOS>ATOM
      1 O           6.0097    4.6698    0.0000 O.3     1  UNL1       -0.4864
      2 O           6.3587    0.7934    0.0000 O.2     1  UNL1       -0.2735
      3 O           6.5131    3.8058    0.0000 O.2     1  UNL1       -0.2736
      4 O           3.0181   -0.5632    0.0000 O.2     1  UNL1       -0.2741
      5 O           9.5274    3.7934    0.0000 O.2     1  UNL1       -0.2734
      6 N           5.3406    2.1946    0.0000 N.am    1  UNL1       -0.2849
      7 N           4.7406   -0.3822    0.0000 N.am    1  UNL1       -0.3024
      8 N           7.5097    2.0718    0.0000 N.am    1  UNL1       -0.3020
      9 N           4.9497   -2.3712    0.0000 N.3     1  UNL1       -0.2974
     10 N          10.0097    2.9378    0.0000 N.am    1  UNL1       -0.2904
     11 C           6.0097    2.9378    0.0000 C.3     1  UNL1        0.1390
     12 C           5.5097    3.8038    0.0000 C.3     1  UNL1        0.1285
     13 C           4.5316    3.5959    0.0000 C.3     1  UNL1        0.0024
     14 C           4.4271    2.6014    0.0000 C.3     1  UNL1        0.0191
     15 C           4.6361    0.6123    0.0000 C.3     1  UNL1        0.1022
     16 C           5.4451    1.2001    0.0000 C.2     1  UNL1        0.2369
     17 C           3.7226    1.0191    0.0000 C.3     1  UNL1       -0.0171
     18 C           7.0097    2.9378    0.0000 C.2     1  UNL1        0.2378
     19 C           2.9136    0.4313    0.0000 C.3     1  UNL1       -0.0512
     20 C           3.6180    2.0136    0.0000 C.3     1  UNL1       -0.0603
     21 C           8.5097    2.0718    0.0000 C.3     1  UNL1        0.1037
     22 C           7.0097    4.6698    0.0000 C.ar    1  UNL1        0.1211
     23 C           3.9316   -0.9700    0.0000 C.2     1  UNL1        0.2312
     24 C           4.0362   -1.9645    0.0000 C.3     1  UNL1        0.0908
     25 C           2.0000    0.8380    0.0000 C.3     1  UNL1       -0.0650
     26 C           9.0097    1.2057    0.0000 C.3     1  UNL1       -0.0006
     27 C           3.2271   -2.5523    0.0000 C.3     1  UNL1       -0.0035
     28 C           9.0097    2.9378    0.0000 C.2     1  UNL1        0.2374
     29 C           7.5097    3.8038    0.0000 C.ar    1  UNL1       -0.0194
     30 C           7.5097    5.5358    0.0000 C.ar    1  UNL1       -0.0194
     31 C           8.5097    0.3397    0.0000 C.ar    1  UNL1       -0.0451
     32 C           8.5097    3.8038    0.0000 C.ar    1  UNL1       -0.0511
     33 C           8.5097    5.5358    0.0000 C.ar    1  UNL1       -0.0511
     34 C           9.0097    4.6698    0.0000 C.ar    1  UNL1       -0.0236
     35 C           3.3317   -3.5468    0.0000 C.ar    1  UNL1       -0.0454
     36 C           5.0542   -3.3658    0.0000 C.3     1  UNL1       -0.0123
     37 C           5.7587   -1.7834    0.0000 C.3     1  UNL1       -0.0123
     38 C          10.0097    4.6698    0.0000 C.2     1  UNL1       -0.0407
     39 C           7.5097    0.3397    0.0000 C.ar    1  UNL1       -0.0585
     40 C           9.0097   -0.5263    0.0000 C.ar    1  UNL1       -0.0585
     41 C          10.5097    3.8038    0.0000 C.2     1  UNL1       -0.0031
     42 C           2.5226   -4.1346    0.0000 C.ar    1  UNL1       -0.0585
     43 C           4.2452   -3.9536    0.0000 C.ar    1  UNL1       -0.0585
     44 C           7.0097   -0.5263    0.0000 C.ar    1  UNL1       -0.0615
     45 C           8.5097   -1.3924    0.0000 C.ar    1  UNL1       -0.0615
     46 C           2.6272   -5.1291    0.0000 C.ar    1  UNL1       -0.0615
     47 C           4.3497   -4.9481    0.0000 C.ar    1  UNL1       -0.0615
     48 C           7.5097   -1.3924    0.0000 C.ar    1  UNL1       -0.0617
     49 C           3.5407   -5.5358    0.0000 C.ar    1  UNL1       -0.0617
     50 H           6.3555    2.1613    0.0000 H       1  UNL1        0.0634
     51 H           5.0101    4.4915    0.0000 H       1  UNL1        0.0757
     52 H           4.4668    4.2125    0.0000 H       1  UNL1        0.0317
     53 H           3.9116    3.5959    0.0000 H       1  UNL1        0.0317
     54 H           3.8206    2.7303    0.0000 H       1  UNL1        0.0466
     55 H           4.2355    2.0117    0.0000 H       1  UNL1        0.0466
     56 H           5.2025    0.3602    0.0000 H       1  UNL1        0.0597
     57 H           4.2242    1.3835    0.0000 H       1  UNL1        0.0321
     58 H           2.5668   -0.0827    0.0000 H       1  UNL1        0.0266
     59 H           3.3595    0.0006    0.0000 H       1  UNL1        0.0266
     60 H           5.3070   -0.6344    0.0000 H       1  UNL1        0.1495
     61 H           7.1997    1.5348    0.0000 H       1  UNL1        0.1495
     62 H           4.2346    2.0784    0.0000 H       1  UNL1        0.0233
     63 H           3.5532    2.6302    0.0000 H       1  UNL1        0.0233
     64 H           3.0014    1.9488    0.0000 H       1  UNL1        0.0233
     65 H           8.1997    1.5348    0.0000 H       1  UNL1        0.0598
     66 H           4.5377   -1.6001    0.0000 H       1  UNL1        0.0562
     67 H           2.2522    1.4044    0.0000 H       1  UNL1        0.0230
     68 H           1.4336    1.0902    0.0000 H       1  UNL1        0.0230
     69 H           1.7478    0.2716    0.0000 H       1  UNL1        0.0230
     70 H           9.4847    0.8072    0.0000 H       1  UNL1        0.0336
     71 H           9.4847    1.6043    0.0000 H       1  UNL1        0.0336
     72 H           2.9553   -1.9950    0.0000 H       1  UNL1        0.0333
     73 H           2.6312   -2.7232    0.0000 H       1  UNL1        0.0333
     74 H           7.1997    3.2669    0.0000 H       1  UNL1        0.0654
     75 H           7.1997    6.0728    0.0000 H       1  UNL1        0.0654
     76 H           8.8197    3.2669    0.0000 H       1  UNL1        0.0625
     77 H           8.8197    6.0728    0.0000 H       1  UNL1        0.0625
     78 H          10.3197    2.4008    0.0000 H       1  UNL1        0.1543
     79 H           4.4376   -3.4306    0.0000 H       1  UNL1        0.0391
     80 H           5.1190   -3.9824    0.0000 H       1  UNL1        0.0391
     81 H           5.6708   -3.3010    0.0000 H       1  UNL1        0.0391
     82 H           6.1231   -2.2850    0.0000 H       1  UNL1        0.0391
     83 H           6.2603   -1.4190    0.0000 H       1  UNL1        0.0391
     84 H           5.3943   -1.2819    0.0000 H       1  UNL1        0.0391
     85 H          10.3197    5.2068    0.0000 H       1  UNL1        0.0636
     86 H           7.1997    0.8766    0.0000 H       1  UNL1        0.0620
     87 H           9.6297   -0.5263    0.0000 H       1  UNL1        0.0620
     88 H          11.1297    3.8038    0.0000 H       1  UNL1        0.0782
     89 H           1.9562   -3.8824    0.0000 H       1  UNL1        0.0620
     90 H           4.7468   -3.5891    0.0000 H       1  UNL1        0.0620
     91 H           6.3897   -0.5263    0.0000 H       1  UNL1        0.0618
     92 H           8.8197   -1.9293    0.0000 H       1  UNL1        0.0618
     93 H           2.1256   -5.4936    0.0000 H       1  UNL1        0.0618
     94 H           4.9161   -5.2002    0.0000 H       1  UNL1        0.0618
     95 H           7.1997   -1.9293    0.0000 H       1  UNL1        0.0618
     96 H           3.6055   -6.1525    0.0000 H       1  UNL1        0.0618
@<TRIPOS>BOND
     1     1    12    1
     2     1    22    1
     3     2    16    2
     4     3    18    2
     5     4    23    2
     6     5    28    2
     7     6    11    1
     8     6    14    1
     9     6    16   am
    10    15     7    1
    11     7    23   am
    12     7    60    1
    13     8    18   am
    14     8    21    1
    15     8    61    1
    16    24     9    1
    17     9    36    1
    18     9    37    1
    19    10    28   am
    20    10    41    1
    21    10    78    1
    22    11    12    1
    23    11    18    1
    24    11    50    1
    25    12    13    1
    26    12    51    1
    27    13    14    1
    28    13    52    1
    29    13    53    1
    30    14    54    1
    31    14    55    1
    32    15    16    1
    33    15    17    1
    34    15    56    1
    35    17    19    1
    36    17    20    1
    37    17    57    1
    38    19    25    1
    39    19    58    1
    40    19    59    1
    41    20    62    1
    42    20    63    1
    43    20    64    1
    44    21    26    1
    45    21    28    1
    46    21    65    1
    47    22    29   ar
    48    22    30   ar
    49    23    24    1
    50    24    27    1
    51    24    66    1
    52    25    67    1
    53    25    68    1
    54    25    69    1
    55    26    31    1
    56    26    70    1
    57    26    71    1
    58    27    35    1
    59    27    72    1
    60    27    73    1
    61    29    32   ar
    62    29    74    1
    63    30    33   ar
    64    30    75    1
    65    31    39   ar
    66    31    40   ar
    67    32    34   ar
    68    32    76    1
    69    33    34   ar
    70    33    77    1
    71    34    38    1
    72    35    42   ar
    73    35    43   ar
    74    36    79    1
    75    36    80    1
    76    36    81    1
    77    37    82    1
    78    37    83    1
    79    37    84    1
    80    38    41    2
    81    38    85    1
    82    39    44   ar
    83    39    86    1
    84    40    45   ar
    85    40    87    1
    86    41    88    1
    87    42    46   ar
    88    42    89    1
    89    43    47   ar
    90    43    90    1
    91    44    48   ar
    92    44    91    1
    93    45    48   ar
    94    45    92    1
    95    46    49   ar
    96    46    93    1
    97    47    49   ar
    98    47    94    1
    99    48    95    1
   100    49    96    1
