@<TRIPOS>MOLECULE
IMPHY015136
 29 29 0 0 0
SMALL
GASTEIGER

@<TRIPOS>ATOM
      1 C           4.5981    0.5670    0.0000 C.3     1  UNL1       -0.0250
      2 C           3.7320    0.0670    0.0000 C.3     1  UNL1        0.0028
      3 C           5.4641    0.0670    0.0000 C.3     1  UNL1       -0.0468
      4 C           5.4641   -0.9330    0.0000 C.3     1  UNL1       -0.0488
      5 C           3.7320   -0.9330    0.0000 C.2     1  UNL1       -0.0693
      6 C           4.5981   -1.4330    0.0000 C.3     1  UNL1       -0.0314
      7 C           5.0981    1.4330    0.0000 C.3     1  UNL1       -0.0590
      8 C           4.0981    1.4330    0.0000 C.3     1  UNL1       -0.0590
      9 C           2.8660    0.5670    0.0000 C.2     1  UNL1       -0.0835
     10 C           2.8660   -1.4330    0.0000 C.2     1  UNL1       -0.0989
     11 C           2.0000    0.0670    0.0000 C.2     1  UNL1       -0.1020
     12 H           3.7320    0.6870    0.0000 H       1  UNL1        0.0393
     13 H           6.0747   -0.0407    0.0000 H       1  UNL1        0.0271
     14 H           5.6762    0.6496    0.0000 H       1  UNL1        0.0271
     15 H           5.6762   -1.5156    0.0000 H       1  UNL1        0.0268
     16 H           6.0747   -0.8254    0.0000 H       1  UNL1        0.0268
     17 H           4.1996   -1.9080    0.0000 H       1  UNL1        0.0310
     18 H           4.9966   -1.9080    0.0000 H       1  UNL1        0.0310
     19 H           5.6350    1.1230    0.0000 H       1  UNL1        0.0235
     20 H           5.4081    1.9700    0.0000 H       1  UNL1        0.0235
     21 H           4.5611    1.7430    0.0000 H       1  UNL1        0.0235
     22 H           4.6350    1.7430    0.0000 H       1  UNL1        0.0235
     23 H           3.7881    1.9700    0.0000 H       1  UNL1        0.0235
     24 H           3.5611    1.1230    0.0000 H       1  UNL1        0.0235
     25 H           2.8660    1.1870    0.0000 H       1  UNL1        0.0572
     26 H           2.3291   -1.1230    0.0000 H       1  UNL1        0.0535
     27 H           2.8660   -2.0530    0.0000 H       1  UNL1        0.0535
     28 H           1.4631    0.3770    0.0000 H       1  UNL1        0.0532
     29 H           2.0000   -0.5530    0.0000 H       1  UNL1        0.0532
@<TRIPOS>BOND
     1     1     2    1
     2     1     3    1
     3     1     7    1
     4     1     8    1
     5     2     5    1
     6     2     9    1
     7     2    12    1
     8     3     4    1
     9     3    13    1
    10     3    14    1
    11     4     6    1
    12     4    15    1
    13     4    16    1
    14     5     6    1
    15     5    10    2
    16     6    17    1
    17     6    18    1
    18     7    19    1
    19     7    20    1
    20     7    21    1
    21     8    22    1
    22     8    23    1
    23     8    24    1
    24     9    11    2
    25     9    25    1
    26    10    26    1
    27    10    27    1
    28    11    28    1
    29    11    29    1
