@<TRIPOS>MOLECULE
IMPHY002565
 28 29 0 0 0
SMALL
GASTEIGER

@<TRIPOS>ATOM
      1 O           5.9019   -1.7755    0.0000 O.3     1  UNL1       -0.3506
      2 O           6.8530    0.0911    0.0000 O.3     1  UNL1       -0.3740
      3 O           4.0051    2.1601    0.0000 O.3     1  UNL1       -0.3824
      4 O           3.3328    0.0911    0.0000 O.2     1  UNL1       -0.2726
      5 O           2.5896   -2.1356    0.0000 O.3     1  UNL1       -0.3906
      6 N           5.0929   -0.1877    0.0000 N.am    1  UNL1       -0.2437
      7 C           5.9019    0.4001    0.0000 C.3     1  UNL1        0.1292
      8 C           5.0929   -1.1877    0.0000 C.3     1  UNL1        0.1539
      9 C           5.5929    1.3511    0.0000 C.3     1  UNL1        0.0249
     10 C           4.5929    1.3511    0.0000 C.3     1  UNL1        0.1351
     11 C           4.2839    0.4001    0.0000 C.2     1  UNL1        0.2484
     12 C           4.2839   -1.7755    0.0000 C.2     1  UNL1        0.0004
     13 C           5.5929   -2.7266    0.0000 C.3     1  UNL1        0.0689
     14 C           4.5929   -2.7266    0.0000 C.2     1  UNL1       -0.0532
     15 C           3.3328   -1.4665    0.0000 C.3     1  UNL1        0.0693
     16 H           5.9989   -0.2123    0.0000 H       1  UNL1        0.0809
     17 H           5.6453   -0.9062    0.0000 H       1  UNL1        0.0861
     18 H           6.1993    1.4800    0.0000 H       1  UNL1        0.0336
     19 H           5.5281    1.9677    0.0000 H       1  UNL1        0.0336
     20 H           4.8744    1.9036    0.0000 H       1  UNL1        0.0692
     21 H           5.5281   -3.3432    0.0000 H       1  UNL1        0.0605
     22 H           6.1993   -2.8554    0.0000 H       1  UNL1        0.0605
     23 H           4.2284   -3.2281    0.0000 H       1  UNL1        0.0596
     24 H           3.6239   -0.9190    0.0000 H       1  UNL1        0.0605
     25 H           2.8442   -1.0848    0.0000 H       1  UNL1        0.0605
     26 H           7.3137    0.5059    0.0000 H       1  UNL1        0.2117
     27 H           4.2573    2.7266    0.0000 H       1  UNL1        0.2104
     28 H           2.0000   -1.9440    0.0000 H       1  UNL1        0.2098
@<TRIPOS>BOND
     1     1     8    1
     2     1    13    1
     3     7     2    1
     4     2    26    1
     5    10     3    1
     6     3    27    1
     7     4    11    2
     8     5    15    1
     9     5    28    1
    10     6     7    1
    11     6     8    1
    12     6    11   am
    13     7     9    1
    14     7    16    1
    15     8    12    1
    16     8    17    1
    17     9    10    1
    18     9    18    1
    19     9    19    1
    20    10    11    1
    21    10    20    1
    22    12    14    2
    23    12    15    1
    24    13    14    1
    25    13    21    1
    26    13    22    1
    27    14    23    1
    28    15    24    1
    29    15    25    1
