@<TRIPOS>MOLECULE
IMPHY010538
 49 48 0 0 0
SMALL
GASTEIGER

@<TRIPOS>ATOM
      1 O          13.2583   -1.0600    0.0000 O.2     1  UNL1       -0.2977
      2 C           8.9282    0.4400    0.0000 C.3     1  UNL1       -0.0286
      3 C           8.0622   -0.0600    0.0000 C.3     1  UNL1       -0.0308
      4 C           5.4641    0.4400    0.0000 C.3     1  UNL1       -0.0286
      5 C           6.3301   -0.0600    0.0000 C.2     1  UNL1       -0.0762
      6 C           9.7942   -0.0600    0.0000 C.2     1  UNL1       -0.0762
      7 C           7.1962    0.4400    0.0000 C.2     1  UNL1       -0.0847
      8 C           4.5981   -0.0600    0.0000 C.3     1  UNL1       -0.0308
      9 C          10.6603    0.4400    0.0000 C.2     1  UNL1       -0.0846
     10 C          11.5263   -0.0600    0.0000 C.3     1  UNL1       -0.0279
     11 C           6.3301   -1.0600    0.0000 C.3     1  UNL1       -0.0438
     12 C           9.7942   -1.0600    0.0000 C.3     1  UNL1       -0.0438
     13 C          12.3923    0.4400    0.0000 C.3     1  UNL1        0.0090
     14 C           3.7320    0.4400    0.0000 C.2     1  UNL1       -0.0850
     15 C           2.8660   -0.0600    0.0000 C.2     1  UNL1       -0.0796
     16 C          13.2583   -0.0600    0.0000 C.2     1  UNL1        0.1306
     17 C           2.0000    0.4400    0.0000 C.3     1  UNL1       -0.0440
     18 C           2.8660   -1.0600    0.0000 C.3     1  UNL1       -0.0440
     19 C          14.1244    0.4400    0.0000 C.3     1  UNL1       -0.0061
     20 H           9.3267    0.9149    0.0000 H       1  UNL1        0.0313
     21 H           8.5297    0.9149    0.0000 H       1  UNL1        0.0313
     22 H           7.6636   -0.5349    0.0000 H       1  UNL1        0.0310
     23 H           8.4607   -0.5349    0.0000 H       1  UNL1        0.0310
     24 H           5.8626    0.9149    0.0000 H       1  UNL1        0.0313
     25 H           5.0656    0.9149    0.0000 H       1  UNL1        0.0313
     26 H           7.1962    1.0600    0.0000 H       1  UNL1        0.0572
     27 H           4.1996   -0.5349    0.0000 H       1  UNL1        0.0310
     28 H           4.9966   -0.5349    0.0000 H       1  UNL1        0.0310
     29 H          10.6603    1.0600    0.0000 H       1  UNL1        0.0572
     30 H          11.1278   -0.5349    0.0000 H       1  UNL1        0.0311
     31 H          11.9248   -0.5349    0.0000 H       1  UNL1        0.0311
     32 H           5.7101   -1.0600    0.0000 H       1  UNL1        0.0274
     33 H           6.3301   -1.6800    0.0000 H       1  UNL1        0.0274
     34 H           6.9501   -1.0600    0.0000 H       1  UNL1        0.0274
     35 H           9.1742   -1.0600    0.0000 H       1  UNL1        0.0274
     36 H           9.7942   -1.6800    0.0000 H       1  UNL1        0.0274
     37 H          10.4142   -1.0600    0.0000 H       1  UNL1        0.0274
     38 H          12.7908    0.9149    0.0000 H       1  UNL1        0.0344
     39 H          11.9938    0.9149    0.0000 H       1  UNL1        0.0344
     40 H           3.7320    1.0600    0.0000 H       1  UNL1        0.0572
     41 H           2.2460   -1.0600    0.0000 H       1  UNL1        0.0274
     42 H           2.3100    0.9769    0.0000 H       1  UNL1        0.0274
     43 H           1.4631    0.7500    0.0000 H       1  UNL1        0.0274
     44 H           1.6900   -0.0969    0.0000 H       1  UNL1        0.0274
     45 H           2.8660   -1.6800    0.0000 H       1  UNL1        0.0274
     46 H           3.4860   -1.0600    0.0000 H       1  UNL1        0.0274
     47 H          14.4344   -0.0969    0.0000 H       1  UNL1        0.0306
     48 H          14.6613    0.7500    0.0000 H       1  UNL1        0.0306
     49 H          13.8144    0.9769    0.0000 H       1  UNL1        0.0306
@<TRIPOS>BOND
     1     1    16    2
     2     2     3    1
     3     2     6    1
     4     2    20    1
     5     2    21    1
     6     3     7    1
     7     3    22    1
     8     3    23    1
     9     4     5    1
    10     4     8    1
    11     4    24    1
    12     4    25    1
    13     5     7    2
    14     5    11    1
    15     6     9    2
    16     6    12    1
    17     7    26    1
    18     8    14    1
    19     8    27    1
    20     8    28    1
    21     9    10    1
    22     9    29    1
    23    10    13    1
    24    10    30    1
    25    10    31    1
    26    11    32    1
    27    11    33    1
    28    11    34    1
    29    12    35    1
    30    12    36    1
    31    12    37    1
    32    13    16    1
    33    13    38    1
    34    13    39    1
    35    14    15    2
    36    14    40    1
    37    15    17    1
    38    15    18    1
    39    16    19    1
    40    17    42    1
    41    17    43    1
    42    17    44    1
    43    18    41    1
    44    18    45    1
    45    18    46    1
    46    19    47    1
    47    19    48    1
    48    19    49    1
