@<TRIPOS>MOLECULE
IMPHY014237
 26 26 0 0 0
SMALL
GASTEIGER

@<TRIPOS>ATOM
      1 O           2.0000    0.5000    0.0000 O.3     1  UNL1       -0.3853
      2 O           4.5981    3.0000    0.0000 O.2     1  UNL1       -0.2795
      3 N           3.7320    1.5000    0.0000 N.am    1  UNL1       -0.3125
      4 C           3.7320    0.5000    0.0000 C.3     1  UNL1        0.0501
      5 C           2.8660    0.0000    0.0000 C.3     1  UNL1        0.0982
      6 C           2.8660   -1.0000    0.0000 C.ar    1  UNL1       -0.0174
      7 C           4.5981    0.0000    0.0000 C.3     1  UNL1       -0.0439
      8 C           2.0000   -1.5000    0.0000 C.ar    1  UNL1       -0.0561
      9 C           3.7320   -1.5000    0.0000 C.ar    1  UNL1       -0.0561
     10 C           2.0000   -2.5000    0.0000 C.ar    1  UNL1       -0.0614
     11 C           3.7320   -2.5000    0.0000 C.ar    1  UNL1       -0.0614
     12 C           2.8660   -3.0000    0.0000 C.ar    1  UNL1       -0.0617
     13 C           4.5981    2.0000    0.0000 C.2     1  UNL1        0.2002
     14 H           4.2690    0.8100    0.0000 H       1  UNL1        0.0524
     15 H           2.8660    0.6200    0.0000 H       1  UNL1        0.0662
     16 H           4.2881   -0.5369    0.0000 H       1  UNL1        0.0248
     17 H           5.1350   -0.3100    0.0000 H       1  UNL1        0.0248
     18 H           4.9081    0.5369    0.0000 H       1  UNL1        0.0248
     19 H           3.1951    1.8100    0.0000 H       1  UNL1        0.1488
     20 H           1.4631   -1.1900    0.0000 H       1  UNL1        0.0621
     21 H           4.2690   -1.1900    0.0000 H       1  UNL1        0.0621
     22 H           2.0000    1.1200    0.0000 H       1  UNL1        0.2103
     23 H           1.4631   -2.8100    0.0000 H       1  UNL1        0.0618
     24 H           4.2690   -2.8100    0.0000 H       1  UNL1        0.0618
     25 H           2.8660   -3.6200    0.0000 H       1  UNL1        0.0618
     26 H           5.1350    1.6900    0.0000 H       1  UNL1        0.1251
@<TRIPOS>BOND
     1     5     1    1
     2     1    22    1
     3     2    13    2
     4     4     3    1
     5     3    13   am
     6     3    19    1
     7     4     5    1
     8     4     7    1
     9     4    14    1
    10     5     6    1
    11     5    15    1
    12     6     8   ar
    13     6     9   ar
    14     7    16    1
    15     7    17    1
    16     7    18    1
    17     8    10   ar
    18     8    20    1
    19     9    11   ar
    20     9    21    1
    21    10    12   ar
    22    10    23    1
    23    11    12   ar
    24    11    24    1
    25    12    25    1
    26    13    26    1
