@<TRIPOS>MOLECULE
IMPHY002705
 62 67 0 0 0
SMALL
GASTEIGER

@<TRIPOS>ATOM
      1 O          10.4205    0.4653    0.0000 O.3     1  UNL1       -0.4822
      2 O           6.9006   -0.4653    0.0000 O.3     1  UNL1       -0.4822
      3 O           6.9285    0.5000    0.0000 O.3     1  UNL1       -0.5059
      4 O          10.3926   -0.5000    0.0000 O.3     1  UNL1       -0.5059
      5 O           6.9121   -3.5346    0.0000 O.2     1  UNL1       -0.2917
      6 O          10.4089    3.5346    0.0000 O.2     1  UNL1       -0.2917
      7 O           8.6605    3.5000    0.0000 O.3     1  UNL1       -0.5058
      8 O           8.6605   -3.5000    0.0000 O.3     1  UNL1       -0.5058
      9 O          14.7829   -1.0341    0.0000 O.3     1  UNL1       -0.5068
     10 O           2.5381    1.0341    0.0000 O.3     1  UNL1       -0.5068
     11 C           5.9945   -0.9792    0.0000 C.3     1  UNL1        0.1322
     12 C          11.3266    0.9792    0.0000 C.3     1  UNL1        0.1322
     13 C           8.6605    0.5000    0.0000 C.ar    1  UNL1        0.0731
     14 C           8.6605   -0.5000    0.0000 C.ar    1  UNL1        0.0731
     15 C           7.7945   -1.0000    0.0000 C.ar    1  UNL1        0.1468
     16 C           9.5266    1.0000    0.0000 C.ar    1  UNL1        0.1468
     17 C           5.9945   -2.0208    0.0000 C.3     1  UNL1        0.0520
     18 C          11.3266    2.0208    0.0000 C.3     1  UNL1        0.0520
     19 C           9.5266    2.0000    0.0000 C.ar    1  UNL1        0.1013
     20 C           7.7945   -2.0000    0.0000 C.ar    1  UNL1        0.1013
     21 C          10.4205    2.5347    0.0000 C.2     1  UNL1        0.1740
     22 C           6.9006   -2.5347    0.0000 C.2     1  UNL1        0.1740
     23 C          12.1907    0.4758    0.0000 C.ar    1  UNL1       -0.0067
     24 C           5.1304   -0.4758    0.0000 C.ar    1  UNL1       -0.0067
     25 C           9.5266   -1.0000    0.0000 C.ar    1  UNL1        0.1318
     26 C           7.7945    1.0000    0.0000 C.ar    1  UNL1        0.1318
     27 C           8.6605   -2.5000    0.0000 C.ar    1  UNL1        0.1344
     28 C           8.6605    2.5000    0.0000 C.ar    1  UNL1        0.1344
     29 C           7.7945    2.0000    0.0000 C.ar    1  UNL1        0.0229
     30 C           9.5266   -2.0000    0.0000 C.ar    1  UNL1        0.0229
     31 C           5.1343    0.5241    0.0000 C.ar    1  UNL1       -0.0516
     32 C          12.1868   -0.5241    0.0000 C.ar    1  UNL1       -0.0516
     33 C          13.0586    0.9725    0.0000 C.ar    1  UNL1       -0.0516
     34 C           4.2625   -0.9725    0.0000 C.ar    1  UNL1       -0.0516
     35 C          13.0509   -1.0275    0.0000 C.ar    1  UNL1       -0.0198
     36 C           4.2702    1.0275    0.0000 C.ar    1  UNL1       -0.0198
     37 C          13.9227    0.4692    0.0000 C.ar    1  UNL1       -0.0198
     38 C           3.3984   -0.4692    0.0000 C.ar    1  UNL1       -0.0198
     39 C           3.4022    0.5308    0.0000 C.ar    1  UNL1        0.1169
     40 C          13.9188   -0.5308    0.0000 C.ar    1  UNL1        0.1169
     41 H          11.3230    0.3592    0.0000 H       1  UNL1        0.0789
     42 H           5.9981   -0.3592    0.0000 H       1  UNL1        0.0789
     43 H           5.3836   -1.9147    0.0000 H       1  UNL1        0.0385
     44 H          11.9374    1.9147    0.0000 H       1  UNL1        0.0385
     45 H          11.5356    2.6045    0.0000 H       1  UNL1        0.0385
     46 H           5.7854   -2.6045    0.0000 H       1  UNL1        0.0385
     47 H           7.2576    2.3100    0.0000 H       1  UNL1        0.0691
     48 H          10.0635   -2.3100    0.0000 H       1  UNL1        0.0691
     49 H           5.6724    0.8321    0.0000 H       1  UNL1        0.0623
     50 H          11.6487   -0.8321    0.0000 H       1  UNL1        0.0623
     51 H           4.2601   -1.5925    0.0000 H       1  UNL1        0.0623
     52 H          13.0610    1.5925    0.0000 H       1  UNL1        0.0623
     53 H          13.0485   -1.6475    0.0000 H       1  UNL1        0.0654
     54 H           4.2726    1.6475    0.0000 H       1  UNL1        0.0654
     55 H          14.4608    0.7771    0.0000 H       1  UNL1        0.0654
     56 H           2.8602   -0.7771    0.0000 H       1  UNL1        0.0654
     57 H           6.3915    0.8100    0.0000 H       1  UNL1        0.2922
     58 H          10.9295   -0.8100    0.0000 H       1  UNL1        0.2922
     59 H           8.1236    3.8100    0.0000 H       1  UNL1        0.2922
     60 H           9.1975   -3.8100    0.0000 H       1  UNL1        0.2922
     61 H          15.3211   -0.7262    0.0000 H       1  UNL1        0.2921
     62 H           2.0000    0.7262    0.0000 H       1  UNL1        0.2921
@<TRIPOS>BOND
     1     1    12    1
     2     1    16    1
     3     2    11    1
     4     2    15    1
     5     3    26    1
     6     3    57    1
     7     4    25    1
     8     4    58    1
     9     5    22    2
    10     6    21    2
    11     7    28    1
    12     7    59    1
    13     8    27    1
    14     8    60    1
    15     9    40    1
    16     9    61    1
    17    10    39    1
    18    10    62    1
    19    11    17    1
    20    11    24    1
    21    11    42    1
    22    12    18    1
    23    12    23    1
    24    12    41    1
    25    13    14    1
    26    13    16   ar
    27    13    26   ar
    28    14    15   ar
    29    14    25   ar
    30    15    20   ar
    31    16    19   ar
    32    17    22    1
    33    17    43    1
    34    17    46    1
    35    18    21    1
    36    18    44    1
    37    18    45    1
    38    19    21    1
    39    19    28   ar
    40    20    22    1
    41    20    27   ar
    42    23    32   ar
    43    23    33   ar
    44    24    31   ar
    45    24    34   ar
    46    25    30   ar
    47    26    29   ar
    48    27    30   ar
    49    28    29   ar
    50    29    47    1
    51    30    48    1
    52    31    36   ar
    53    31    49    1
    54    32    35   ar
    55    32    50    1
    56    33    37   ar
    57    33    52    1
    58    34    38   ar
    59    34    51    1
    60    35    40   ar
    61    35    53    1
    62    36    39   ar
    63    36    54    1
    64    37    40   ar
    65    37    55    1
    66    38    39   ar
    67    38    56    1
