@<TRIPOS>MOLECULE
IMPHY001454
 17 17 0 0 0
SMALL
GASTEIGER

@<TRIPOS>ATOM
      1 O           2.5369    0.5950    0.0000 O.3     1  UNL1       -0.5058
      2 O           4.2690   -2.4050    0.0000 O.3     1  UNL1       -0.5066
      3 O           5.1350    2.0950    0.0000 O.3     1  UNL1       -0.4770
      4 O           3.4030    2.0950    0.0000 O.2     1  UNL1       -0.2450
      5 C           4.2690    0.5950    0.0000 C.ar    1  UNL1        0.1003
      6 C           3.4030    0.0950    0.0000 C.ar    1  UNL1        0.1343
      7 C           5.1350    0.0950    0.0000 C.ar    1  UNL1       -0.0408
      8 C           3.4030   -0.9050    0.0000 C.ar    1  UNL1        0.0221
      9 C           4.2690   -1.4050    0.0000 C.ar    1  UNL1        0.1204
     10 C           5.1350   -0.9050    0.0000 C.ar    1  UNL1       -0.0192
     11 C           4.2690    1.5950    0.0000 C.2     1  UNL1        0.3404
     12 H           5.6720    0.4050    0.0000 H       1  UNL1        0.0628
     13 H           2.8660   -1.2150    0.0000 H       1  UNL1        0.0691
     14 H           5.6720   -1.2150    0.0000 H       1  UNL1        0.0654
     15 H           2.0000    0.2850    0.0000 H       1  UNL1        0.2922
     16 H           4.8059   -2.7150    0.0000 H       1  UNL1        0.2921
     17 H           5.1350    2.7150    0.0000 H       1  UNL1        0.2954
@<TRIPOS>BOND
     1     1     6    1
     2     1    15    1
     3     2     9    1
     4     2    16    1
     5     3    11    1
     6     3    17    1
     7     4    11    2
     8     5     6   ar
     9     5     7   ar
    10     5    11    1
    11     6     8   ar
    12     7    10   ar
    13     7    12    1
    14     8     9   ar
    15     8    13    1
    16     9    10   ar
    17    10    14    1
