@<TRIPOS>MOLECULE
IMPHY001647
 34 36 0 0 0
SMALL
GASTEIGER

@<TRIPOS>ATOM
      1 O           6.0682   -2.3877    0.0000 O.2     1  UNL1       -0.4620
      2 O          10.3984    1.1123    0.0000 O.3     1  UNL1       -0.4885
      3 O           6.0682    0.6123    0.0000 O.2     1  UNL1       -0.2864
      4 O           8.6663    2.1123    0.0000 O.3     1  UNL1       -0.5032
      5 O          10.3984   -0.8877    0.0000 O.3     1  UNL1       -0.5032
      6 O           2.5381   -2.4118    0.0000 O.3     1  UNL1       -0.5066
      7 C           6.9343   -0.8877    0.0000 C.ar    1  UNL1        0.0645
      8 C           7.8003   -0.3877    0.0000 C.ar    1  UNL1       -0.0041
      9 C           5.2022   -0.8877    0.0000 C.ar    1  UNL1        0.0648
     10 C           6.0682   -0.3877    0.0000 C.ar    1  UNL1        0.2001
     11 C           5.2022   -1.8877    0.0000 C.ar    1  UNL1        0.1419
     12 C           8.6663   -0.8877    0.0000 C.ar    1  UNL1       -0.0084
     13 C           7.8003    0.6123    0.0000 C.ar    1  UNL1       -0.0084
     14 C           6.9343   -1.8877    0.0000 C.ar    1  UNL1        0.1038
     15 C           4.3083   -0.3530    0.0000 C.ar    1  UNL1       -0.0439
     16 C           8.6663    1.1123    0.0000 C.ar    1  UNL1        0.1627
     17 C           9.5323   -0.3877    0.0000 C.ar    1  UNL1        0.1627
     18 C           9.5323    0.6123    0.0000 C.ar    1  UNL1        0.2031
     19 C           4.3083   -2.4223    0.0000 C.ar    1  UNL1        0.0228
     20 C           3.4022   -0.8669    0.0000 C.ar    1  UNL1       -0.0193
     21 C           3.4022   -1.9085    0.0000 C.ar    1  UNL1        0.1204
     22 C          11.2644    0.6123    0.0000 C.3     1  UNL1        0.0791
     23 H           8.6663   -1.5077    0.0000 H       1  UNL1        0.0661
     24 H           7.2634    0.9223    0.0000 H       1  UNL1        0.0661
     25 H           7.4712   -2.1977    0.0000 H       1  UNL1        0.1037
     26 H           4.3154    0.2670    0.0000 H       1  UNL1        0.0627
     27 H           4.3154   -3.0423    0.0000 H       1  UNL1        0.0691
     28 H           2.8665   -0.5548    0.0000 H       1  UNL1        0.0654
     29 H           8.1294    2.4223    0.0000 H       1  UNL1        0.2923
     30 H          10.3984   -1.5077    0.0000 H       1  UNL1        0.2923
     31 H           2.0000   -2.1039    0.0000 H       1  UNL1        0.2921
     32 H          10.9544    0.0754    0.0000 H       1  UNL1        0.0660
     33 H          11.8013    0.3023    0.0000 H       1  UNL1        0.0660
     34 H          11.5744    1.1493    0.0000 H       1  UNL1        0.0660
@<TRIPOS>BOND
     1     1    11   ar
     2     1    14   ar
     3     2    18    1
     4     2    22    1
     5     3    10    2
     6     4    16    1
     7     4    29    1
     8     5    17    1
     9     5    30    1
    10     6    21    1
    11     6    31    1
    12     7     8    1
    13     7    10   ar
    14     7    14   ar
    15     8    12   ar
    16     8    13   ar
    17     9    10   ar
    18     9    11   ar
    19     9    15   ar
    20    11    19   ar
    21    12    17   ar
    22    12    23    1
    23    13    16   ar
    24    13    24    1
    25    14    25    1
    26    15    20   ar
    27    15    26    1
    28    16    18   ar
    29    17    18   ar
    30    19    21   ar
    31    19    27    1
    32    20    21   ar
    33    20    28    1
    34    22    32    1
    35    22    33    1
    36    22    34    1
