@<TRIPOS>MOLECULE
IMPHY012500
 17 18 0 0 0
SMALL
GASTEIGER

@<TRIPOS>ATOM
      1 O           2.0000    0.1084    0.0000 O.2     1  UNL1       -0.4704
      2 O           5.9674   -1.3531    0.0000 O.2     1  UNL1       -0.2957
      3 C           3.7320    0.1084    0.0000 C.ar    1  UNL1        0.0272
      4 C           3.7320    1.1084    0.0000 C.ar    1  UNL1       -0.0114
      5 C           4.6783   -0.1964    0.0000 C.ar    1  UNL1        0.0248
      6 C           4.6783    1.4131    0.0000 C.ar    1  UNL1       -0.0531
      7 C           5.2619    0.6084    0.0000 C.ar    1  UNL1       -0.0503
      8 C           2.8660    1.6084    0.0000 C.ar    1  UNL1       -0.0190
      9 C           2.8660   -0.3916    0.0000 C.ar    1  UNL1        0.0999
     10 C           2.0000    1.1084    0.0000 C.ar    1  UNL1        0.0922
     11 C           4.9889   -1.1469    0.0000 C.2     1  UNL1        0.1509
     12 H           4.8709    2.0024    0.0000 H       1  UNL1        0.0624
     13 H           5.8819    0.6084    0.0000 H       1  UNL1        0.0625
     14 H           2.8660    2.2284    0.0000 H       1  UNL1        0.0654
     15 H           2.8660   -1.0116    0.0000 H       1  UNL1        0.1036
     16 H           1.4631    1.4184    0.0000 H       1  UNL1        0.1029
     17 H           4.5749   -1.6084    0.0000 H       1  UNL1        0.1082
@<TRIPOS>BOND
     1     1     9   ar
     2     1    10   ar
     3     2    11    2
     4     3     4    1
     5     3     5   ar
     6     3     9   ar
     7     4     6   ar
     8     4     8   ar
     9     5     7   ar
    10     5    11    1
    11     6     7   ar
    12     6    12    1
    13     7    13    1
    14     8    10   ar
    15     8    14    1
    16     9    15    1
    17    10    16    1
    18    11    17    1
