@<TRIPOS>MOLECULE
IMPHY017730
 30 30 0 0 0
SMALL
GASTEIGER

@<TRIPOS>ATOM
      1 C           3.7320   -0.7500    0.0000 C.ar    1  UNL1       -0.0471
      2 C           4.5981    0.7500    0.0000 C.ar    1  UNL1       -0.0471
      3 C           5.4641   -0.7500    0.0000 C.ar    1  UNL1       -0.0471
      4 C           3.7320    0.2500    0.0000 C.ar    1  UNL1       -0.0554
      5 C           4.5981   -1.2500    0.0000 C.ar    1  UNL1       -0.0554
      6 C           5.4641    0.2500    0.0000 C.ar    1  UNL1       -0.0554
      7 C           2.8660   -1.2500    0.0000 C.3     1  UNL1       -0.0305
      8 C           4.5981    1.7500    0.0000 C.3     1  UNL1       -0.0305
      9 C           6.3301   -1.2500    0.0000 C.3     1  UNL1       -0.0305
     10 C           2.0000   -0.7500    0.0000 C.3     1  UNL1       -0.0613
     11 C           5.4641    2.2500    0.0000 C.3     1  UNL1       -0.0613
     12 C           6.3301   -2.2500    0.0000 C.3     1  UNL1       -0.0613
     13 H           3.1951    0.5600    0.0000 H       1  UNL1        0.0623
     14 H           4.5981   -1.8700    0.0000 H       1  UNL1        0.0623
     15 H           6.0010    0.5600    0.0000 H       1  UNL1        0.0623
     16 H           2.4675   -1.7250    0.0000 H       1  UNL1        0.0311
     17 H           3.2646   -1.7250    0.0000 H       1  UNL1        0.0311
     18 H           4.3860    2.3326    0.0000 H       1  UNL1        0.0311
     19 H           3.9875    1.6423    0.0000 H       1  UNL1        0.0311
     20 H           6.9407   -1.3577    0.0000 H       1  UNL1        0.0311
     21 H           6.5422   -0.6674    0.0000 H       1  UNL1        0.0311
     22 H           2.3100   -0.2131    0.0000 H       1  UNL1        0.0233
     23 H           1.4631   -0.4400    0.0000 H       1  UNL1        0.0233
     24 H           1.6900   -1.2869    0.0000 H       1  UNL1        0.0233
     25 H           5.7741    1.7131    0.0000 H       1  UNL1        0.0233
     26 H           6.0010    2.5600    0.0000 H       1  UNL1        0.0233
     27 H           5.1541    2.7869    0.0000 H       1  UNL1        0.0233
     28 H           5.7101   -2.2500    0.0000 H       1  UNL1        0.0233
     29 H           6.3301   -2.8700    0.0000 H       1  UNL1        0.0233
     30 H           6.9501   -2.2500    0.0000 H       1  UNL1        0.0233
@<TRIPOS>BOND
     1     1     4   ar
     2     1     5   ar
     3     1     7    1
     4     2     4   ar
     5     2     6   ar
     6     2     8    1
     7     3     5   ar
     8     3     6   ar
     9     3     9    1
    10     4    13    1
    11     5    14    1
    12     6    15    1
    13     7    10    1
    14     7    16    1
    15     7    17    1
    16     8    11    1
    17     8    18    1
    18     8    19    1
    19     9    12    1
    20     9    20    1
    21     9    21    1
    22    10    22    1
    23    10    23    1
    24    10    24    1
    25    11    25    1
    26    11    26    1
    27    11    27    1
    28    12    28    1
    29    12    29    1
    30    12    30    1
