@<TRIPOS>MOLECULE
IMPHY002730
 83 90 0 0 0
SMALL
GASTEIGER

@<TRIPOS>ATOM
      1 O           9.5331   -2.1178    0.0000 O.3     1  UNL1       -0.4829
      2 O           8.6526    2.0915    0.0000 O.3     1  UNL1       -0.4829
      3 O           5.9888   -2.3131    0.0000 O.3     1  UNL1       -0.5066
      4 O           5.6180    3.9331    0.0000 O.3     1  UNL1       -0.5066
      5 O           8.8188    2.8813    0.0000 O.3     1  UNL1       -0.5066
      6 O          12.1115    1.8051    0.0000 O.3     1  UNL1       -0.5066
      7 O          12.5905   -0.1359    0.0000 O.3     1  UNL1       -0.5068
      8 O          13.5808   -3.3131    0.0000 O.3     1  UNL1       -0.5068
      9 O           2.6197    3.8336    0.0000 O.3     1  UNL1       -0.5068
     10 C           7.8945    0.6717    0.0000 C.3     1  UNL1        0.0549
     11 C           9.5331   -0.5084    0.0000 C.3     1  UNL1        0.0543
     12 C           8.5869   -0.8131    0.0000 C.ar    1  UNL1        0.0097
     13 C           7.7209   -0.3131    0.0000 C.ar    1  UNL1       -0.0252
     14 C           8.7884    1.1067    0.0000 C.3     1  UNL1        0.1360
     15 C          10.1167   -1.3131    0.0000 C.3     1  UNL1        0.1360
     16 C           7.2034    1.3862    0.0000 C.ar    1  UNL1        0.0129
     17 C           8.5869   -1.8131    0.0000 C.ar    1  UNL1        0.1290
     18 C           7.6744    2.2683    0.0000 C.ar    1  UNL1        0.1293
     19 C           9.8438    0.4422    0.0000 C.ar    1  UNL1       -0.0291
     20 C           6.8548   -0.8131    0.0000 C.ar    1  UNL1       -0.0158
     21 C           9.7389    0.7961    0.0000 C.ar    1  UNL1       -0.0062
     22 C          10.9828   -1.8131    0.0000 C.ar    1  UNL1       -0.0062
     23 C           6.2039    1.3530    0.0000 C.ar    1  UNL1       -0.0142
     24 C           7.7209   -2.3131    0.0000 C.ar    1  UNL1        0.0219
     25 C           6.8548   -1.8131    0.0000 C.ar    1  UNL1        0.1206
     26 C           7.1459    3.1173    0.0000 C.ar    1  UNL1        0.0219
     27 C          10.8223    0.6484    0.0000 C.ar    1  UNL1       -0.0161
     28 C           9.1759    1.1865    0.0000 C.ar    1  UNL1       -0.0161
     29 C           5.6755    2.2020    0.0000 C.ar    1  UNL1       -0.0125
     30 C           9.9451   -0.1824    0.0000 C.ar    1  UNL1       -0.0516
     31 C          10.4832    1.4639    0.0000 C.ar    1  UNL1       -0.0516
     32 C           6.1465    3.0841    0.0000 C.ar    1  UNL1        0.1209
     33 C          11.8488   -1.3131    0.0000 C.ar    1  UNL1       -0.0516
     34 C          10.9828   -2.8131    0.0000 C.ar    1  UNL1       -0.0516
     35 C           5.7329    0.4709    0.0000 C.2     1  UNL1       -0.0535
     36 C           9.4866    2.1370    0.0000 C.ar    1  UNL1        0.1206
     37 C          11.1330    1.5989    0.0000 C.ar    1  UNL1        0.1206
     38 C          10.8956   -0.4931    0.0000 C.ar    1  UNL1       -0.0198
     39 C          11.4337    1.1532    0.0000 C.ar    1  UNL1       -0.0198
     40 C          12.7148   -1.8131    0.0000 C.ar    1  UNL1       -0.0198
     41 C          11.8488   -3.3131    0.0000 C.ar    1  UNL1       -0.0198
     42 C          10.4651    2.3432    0.0000 C.ar    1  UNL1        0.0213
     43 C          11.6399    0.1747    0.0000 C.ar    1  UNL1        0.1169
     44 C          12.7148   -2.8131    0.0000 C.ar    1  UNL1        0.1169
     45 C           4.7335    0.4377    0.0000 C.2     1  UNL1       -0.0540
     46 C           4.2050    1.2867    0.0000 C.ar    1  UNL1       -0.0248
     47 C           4.6760    2.1688    0.0000 C.ar    1  UNL1       -0.0511
     48 C           3.2056    1.2535    0.0000 C.ar    1  UNL1       -0.0511
     49 C           4.1476    3.0178    0.0000 C.ar    1  UNL1       -0.0196
     50 C           2.6771    2.1025    0.0000 C.ar    1  UNL1       -0.0196
     51 C           3.1481    2.9846    0.0000 C.ar    1  UNL1        0.1169
     52 H           8.5731    0.1599    0.0000 H       1  UNL1        0.0438
     53 H          10.1456   -0.4122    0.0000 H       1  UNL1        0.0438
     54 H           8.8308    0.4882    0.0000 H       1  UNL1        0.0794
     55 H          10.5318   -0.8525    0.0000 H       1  UNL1        0.0794
     56 H           6.3179   -0.5031    0.0000 H       1  UNL1        0.0657
     57 H           7.7209   -2.9331    0.0000 H       1  UNL1        0.0691
     58 H           7.4379    3.6642    0.0000 H       1  UNL1        0.0691
     59 H          11.2364    0.1869    0.0000 H       1  UNL1        0.0657
     60 H           8.5693    1.0586    0.0000 H       1  UNL1        0.0657
     61 H           5.0558    2.1814    0.0000 H       1  UNL1        0.0660
     62 H           9.4837   -0.5965    0.0000 H       1  UNL1        0.0623
     63 H          10.3553    2.0706    0.0000 H       1  UNL1        0.0623
     64 H          11.8488   -0.6931    0.0000 H       1  UNL1        0.0623
     65 H          10.4458   -3.1231    0.0000 H       1  UNL1        0.0623
     66 H           6.0606   -0.0554    0.0000 H       1  UNL1        0.0624
     67 H          11.0235   -1.0998    0.0000 H       1  UNL1        0.0654
     68 H          11.8952    1.5673    0.0000 H       1  UNL1        0.0654
     69 H          13.2517   -1.5031    0.0000 H       1  UNL1        0.0654
     70 H          11.8488   -3.9331    0.0000 H       1  UNL1        0.0654
     71 H           5.9888   -2.9331    0.0000 H       1  UNL1        0.2921
     72 H          10.6577    2.9325    0.0000 H       1  UNL1        0.0691
     73 H           4.4414   -0.1091    0.0000 H       1  UNL1        0.0624
     74 H           4.9984    3.9125    0.0000 H       1  UNL1        0.2921
     75 H           9.0114    3.4706    0.0000 H       1  UNL1        0.2921
     76 H          12.3041    2.3944    0.0000 H       1  UNL1        0.2921
     77 H          13.0519    0.2781    0.0000 H       1  UNL1        0.2921
     78 H          13.5808   -3.9331    0.0000 H       1  UNL1        0.2921
     79 H           5.2957    2.1894    0.0000 H       1  UNL1        0.0625
     80 H           2.9135    0.7066    0.0000 H       1  UNL1        0.0625
     81 H           4.4396    3.5647    0.0000 H       1  UNL1        0.0654
     82 H           2.0574    2.0819    0.0000 H       1  UNL1        0.0654
     83 H           2.0000    3.8130    0.0000 H       1  UNL1        0.2921
@<TRIPOS>BOND
     1     1    15    1
     2     1    17    1
     3     2    14    1
     4     2    18    1
     5     3    25    1
     6     3    71    1
     7     4    32    1
     8     4    74    1
     9     5    36    1
    10     5    75    1
    11     6    37    1
    12     6    76    1
    13     7    43    1
    14     7    77    1
    15     8    44    1
    16     8    78    1
    17     9    51    1
    18     9    83    1
    19    10    13    1
    20    10    14    1
    21    10    16    1
    22    10    52    1
    23    11    12    1
    24    11    15    1
    25    11    19    1
    26    11    53    1
    27    12    13   ar
    28    12    17   ar
    29    13    20   ar
    30    14    21    1
    31    14    54    1
    32    15    22    1
    33    15    55    1
    34    16    18   ar
    35    16    23   ar
    36    17    24   ar
    37    18    26   ar
    38    19    27   ar
    39    19    28   ar
    40    20    25   ar
    41    20    56    1
    42    21    30   ar
    43    21    31   ar
    44    22    33   ar
    45    22    34   ar
    46    23    29   ar
    47    23    35    1
    48    24    25   ar
    49    24    57    1
    50    26    32   ar
    51    26    58    1
    52    27    37   ar
    53    27    59    1
    54    28    36   ar
    55    28    60    1
    56    29    32   ar
    57    29    61    1
    58    30    38   ar
    59    30    62    1
    60    31    39   ar
    61    31    63    1
    62    33    40   ar
    63    33    64    1
    64    34    41   ar
    65    34    65    1
    66    35    45    2
    67    35    66    1
    68    36    42   ar
    69    37    42   ar
    70    38    43   ar
    71    38    67    1
    72    39    43   ar
    73    39    68    1
    74    40    44   ar
    75    40    69    1
    76    41    44   ar
    77    41    70    1
    78    42    72    1
    79    45    46    1
    80    45    73    1
    81    46    47   ar
    82    46    48   ar
    83    47    49   ar
    84    47    79    1
    85    48    50   ar
    86    48    80    1
    87    49    51   ar
    88    49    81    1
    89    50    51   ar
    90    50    82    1
