@<TRIPOS>MOLECULE
IMPHY008971
 26 26 0 0 0
SMALL
GASTEIGER

@<TRIPOS>ATOM
      1 O           2.8660    1.0000    0.0000 O.3     1  UNL1       -0.4942
      2 O           4.5981   -2.0000    0.0000 O.3     1  UNL1       -0.4949
      3 O           6.3301    1.0000    0.0000 O.3     1  UNL1       -0.5058
      4 O           3.7320    2.5000    0.0000 O.2     1  UNL1       -0.2921
      5 C           4.5981    1.0000    0.0000 C.ar    1  UNL1        0.1002
      6 C           3.7320    0.5000    0.0000 C.ar    1  UNL1        0.1375
      7 C           5.4641    0.5000    0.0000 C.ar    1  UNL1        0.1343
      8 C           4.5981   -1.0000    0.0000 C.ar    1  UNL1        0.1271
      9 C           3.7320   -0.5000    0.0000 C.ar    1  UNL1        0.0227
     10 C           5.4641   -0.5000    0.0000 C.ar    1  UNL1        0.0225
     11 C           4.5981    2.0000    0.0000 C.2     1  UNL1        0.1671
     12 C           5.4641    2.5000    0.0000 C.3     1  UNL1       -0.0012
     13 C           2.0000    0.5000    0.0000 C.3     1  UNL1        0.0788
     14 C           5.4641   -2.5000    0.0000 C.3     1  UNL1        0.0788
     15 H           3.1951   -0.8100    0.0000 H       1  UNL1        0.0691
     16 H           6.0010   -0.8100    0.0000 H       1  UNL1        0.0691
     17 H           5.7741    1.9631    0.0000 H       1  UNL1        0.0309
     18 H           6.0010    2.8100    0.0000 H       1  UNL1        0.0309
     19 H           5.1541    3.0369    0.0000 H       1  UNL1        0.0309
     20 H           6.8671    0.6900    0.0000 H       1  UNL1        0.2922
     21 H           1.6900    1.0369    0.0000 H       1  UNL1        0.0660
     22 H           1.4631    0.1900    0.0000 H       1  UNL1        0.0660
     23 H           2.3100   -0.0369    0.0000 H       1  UNL1        0.0660
     24 H           5.1541   -3.0369    0.0000 H       1  UNL1        0.0660
     25 H           6.0010   -2.8100    0.0000 H       1  UNL1        0.0660
     26 H           5.7741   -1.9631    0.0000 H       1  UNL1        0.0660
@<TRIPOS>BOND
     1     1     6    1
     2     1    13    1
     3     2     8    1
     4     2    14    1
     5     3     7    1
     6     3    20    1
     7     4    11    2
     8     5     6   ar
     9     5     7   ar
    10     5    11    1
    11     6     9   ar
    12     7    10   ar
    13     8     9   ar
    14     8    10   ar
    15     9    15    1
    16    10    16    1
    17    11    12    1
    18    12    17    1
    19    12    18    1
    20    12    19    1
    21    13    21    1
    22    13    22    1
    23    13    23    1
    24    14    24    1
    25    14    25    1
    26    14    26    1
