@<TRIPOS>MOLECULE
IMPHY014749
 27 26 0 0 0
SMALL
GASTEIGER

@<TRIPOS>ATOM
      1 O           2.0000    2.0600    0.0000 O.2     1  UNL1       -0.2963
      2 C           7.1962   -0.9400    0.0000 C.3     1  UNL1       -0.0530
      3 C           6.3301   -1.4400    0.0000 C.3     1  UNL1       -0.0496
      4 C           8.0622   -1.4400    0.0000 C.3     1  UNL1       -0.0559
      5 C           5.4641   -0.9400    0.0000 C.3     1  UNL1       -0.0345
      6 C           8.9282   -0.9400    0.0000 C.3     1  UNL1       -0.0653
      7 C           4.5981   -1.4400    0.0000 C.2     1  UNL1       -0.0840
      8 C           3.7320   -0.9400    0.0000 C.2     1  UNL1       -0.0656
      9 C           3.7320    0.0600    0.0000 C.2     1  UNL1       -0.0590
     10 C           2.8660    0.5600    0.0000 C.2     1  UNL1       -0.0225
     11 C           2.8660    1.5600    0.0000 C.2     1  UNL1        0.1431
     12 H           7.5947   -0.4651    0.0000 H       1  UNL1        0.0265
     13 H           6.7976   -0.4651    0.0000 H       1  UNL1        0.0265
     14 H           5.9316   -1.9150    0.0000 H       1  UNL1        0.0268
     15 H           6.7287   -1.9150    0.0000 H       1  UNL1        0.0268
     16 H           7.6636   -1.9150    0.0000 H       1  UNL1        0.0263
     17 H           8.4607   -1.9150    0.0000 H       1  UNL1        0.0263
     18 H           5.8626   -0.4651    0.0000 H       1  UNL1        0.0307
     19 H           5.0656   -0.4651    0.0000 H       1  UNL1        0.0307
     20 H           9.2382   -1.4769    0.0000 H       1  UNL1        0.0230
     21 H           9.4651   -0.6300    0.0000 H       1  UNL1        0.0230
     22 H           8.6182   -0.4031    0.0000 H       1  UNL1        0.0230
     23 H           4.5981   -2.0600    0.0000 H       1  UNL1        0.0572
     24 H           3.1951   -1.2500    0.0000 H       1  UNL1        0.0614
     25 H           4.2690    0.3700    0.0000 H       1  UNL1        0.0618
     26 H           2.3291    0.2500    0.0000 H       1  UNL1        0.0649
     27 H           3.4030    1.8700    0.0000 H       1  UNL1        0.1075
@<TRIPOS>BOND
     1     1    11    2
     2     2     3    1
     3     2     4    1
     4     2    12    1
     5     2    13    1
     6     3     5    1
     7     3    14    1
     8     3    15    1
     9     4     6    1
    10     4    16    1
    11     4    17    1
    12     5     7    1
    13     5    18    1
    14     5    19    1
    15     6    20    1
    16     6    21    1
    17     6    22    1
    18     7     8    2
    19     7    23    1
    20     8     9    1
    21     8    24    1
    22     9    10    2
    23     9    25    1
    24    10    11    1
    25    10    26    1
    26    11    27    1
