@<TRIPOS>MOLECULE
IMPHY012621
 26 26 0 0 0
SMALL
GASTEIGER

@<TRIPOS>ATOM
      1 N           4.5981   -0.7500    0.0000 N.ar    1  UNL1       -0.2599
      2 C           2.8660   -1.7500    0.0000 C.3     1  UNL1       -0.0413
      3 C           2.8660   -0.7500    0.0000 C.3     1  UNL1       -0.0081
      4 C           3.7320   -0.2500    0.0000 C.ar    1  UNL1        0.0418
      5 C           2.0000   -2.2500    0.0000 C.3     1  UNL1       -0.0623
      6 C           3.7320   -2.2500    0.0000 C.3     1  UNL1       -0.0623
      7 C           3.7320    0.7500    0.0000 C.ar    1  UNL1       -0.0375
      8 C           4.5981    1.2500    0.0000 C.ar    1  UNL1       -0.0473
      9 C           5.4641    0.7500    0.0000 C.ar    1  UNL1       -0.0407
     10 C           5.4641   -0.2500    0.0000 C.ar    1  UNL1        0.0281
     11 C           4.5981    2.2500    0.0000 C.3     1  UNL1       -0.0396
     12 H           2.8660   -2.3700    0.0000 H       1  UNL1        0.0299
     13 H           2.6540   -0.1674    0.0000 H       1  UNL1        0.0331
     14 H           2.2554   -0.8577    0.0000 H       1  UNL1        0.0331
     15 H           1.6900   -1.7131    0.0000 H       1  UNL1        0.0232
     16 H           1.4631   -2.5600    0.0000 H       1  UNL1        0.0232
     17 H           2.3100   -2.7869    0.0000 H       1  UNL1        0.0232
     18 H           3.4220   -2.7869    0.0000 H       1  UNL1        0.0232
     19 H           4.2690   -2.5600    0.0000 H       1  UNL1        0.0232
     20 H           4.0420   -1.7131    0.0000 H       1  UNL1        0.0232
     21 H           3.1951    1.0600    0.0000 H       1  UNL1        0.0638
     22 H           6.0010    1.0600    0.0000 H       1  UNL1        0.0635
     23 H           6.0010   -0.5600    0.0000 H       1  UNL1        0.0830
     24 H           5.2181    2.2500    0.0000 H       1  UNL1        0.0278
     25 H           4.5981    2.8700    0.0000 H       1  UNL1        0.0278
     26 H           3.9781    2.2500    0.0000 H       1  UNL1        0.0278
@<TRIPOS>BOND
     1     1     4   ar
     2     1    10   ar
     3     2     3    1
     4     2     5    1
     5     2     6    1
     6     2    12    1
     7     3     4    1
     8     3    13    1
     9     3    14    1
    10     4     7   ar
    11     5    15    1
    12     5    16    1
    13     5    17    1
    14     6    18    1
    15     6    19    1
    16     6    20    1
    17     7     8   ar
    18     7    21    1
    19     8     9   ar
    20     8    11    1
    21     9    10   ar
    22     9    22    1
    23    10    23    1
    24    11    24    1
    25    11    25    1
    26    11    26    1
