@<TRIPOS>MOLECULE
IMPHY014725
 59 64 0 0 0
SMALL
GASTEIGER

@<TRIPOS>ATOM
      1 O           4.3431    3.2494    0.0000 O.3     1  UNL1       -0.3370
      2 O           3.6523    2.0937    0.0000 O.3     1  UNL1       -0.4349
      3 O           3.1072    0.6366    0.0000 O.2     1  UNL1       -0.2755
      4 O           4.9610   -3.3218    0.0000 O.3     1  UNL1       -0.4951
      5 O           2.0000    2.6132    0.0000 O.2     1  UNL1       -0.2511
      6 N           8.2429    0.7373    0.0000 N.3     1  UNL1       -0.2946
      7 N           4.8020    0.2794    0.0000 N.am    1  UNL1       -0.2668
      8 C           6.4050    0.4465    0.0000 C.3     1  UNL1        0.0336
      9 C           7.2710    0.9465    0.0000 C.3     1  UNL1        0.0227
     10 C           5.5390    0.9465    0.0000 C.3     1  UNL1        0.0512
     11 C           5.5390    1.9465    0.0000 C.3     1  UNL1        0.0481
     12 C           6.4050    2.4465    0.0000 C.3     1  UNL1       -0.0069
     13 C           7.2710    1.9465    0.0000 C.3     1  UNL1       -0.0294
     14 C           7.0721   -0.2905    0.0000 C.3     1  UNL1       -0.0273
     15 C           8.1629   -0.0684    0.0000 C.3     1  UNL1        0.0004
     16 C           6.1958   -0.5253    0.0000 C.ar    1  UNL1       -0.0162
     17 C           6.5447    3.4173    0.0000 C.2     1  UNL1       -0.0537
     18 C           8.1674    2.5676    0.0000 C.3     1  UNL1        0.0207
     19 C           5.2071   -0.6283    0.0000 C.ar    1  UNL1        0.0439
     20 C           4.6284    2.3110    0.0000 C.3     1  UNL1        0.2100
     21 C           6.8166   -1.3540    0.0000 C.ar    1  UNL1       -0.0527
     22 C           5.8747    4.1336    0.0000 C.2     1  UNL1       -0.0578
     23 C           3.8515   -0.0312    0.0000 C.2     1  UNL1        0.2170
     24 C           4.7706   -1.5673    0.0000 C.ar    1  UNL1        0.0018
     25 C           4.8967    4.0590    0.0000 C.3     1  UNL1        0.0702
     26 C           6.4019   -2.3029    0.0000 C.ar    1  UNL1       -0.0196
     27 C           5.3720   -2.4102    0.0000 C.ar    1  UNL1        0.1219
     28 C           3.6452   -1.0097    0.0000 C.3     1  UNL1        0.0127
     29 C           2.9761    2.8305    0.0000 C.2     1  UNL1        0.3061
     30 C           3.2760    3.7844    0.0000 C.3     1  UNL1        0.0333
     31 C           5.5449   -4.1336    0.0000 C.3     1  UNL1        0.0788
     32 H           8.0072    1.3715    0.0000 H       1  UNL1        0.0472
     33 H           4.6890    0.9465    0.0000 H       1  UNL1        0.0519
     34 H           4.8029    1.5215    0.0000 H       1  UNL1        0.0386
     35 H           7.1411    2.8715    0.0000 H       1  UNL1        0.0352
     36 H           7.8816    1.8389    0.0000 H       1  UNL1        0.0286
     37 H           7.4831    2.5291    0.0000 H       1  UNL1        0.0286
     38 H           6.5460   -0.6184    0.0000 H       1  UNL1        0.0287
     39 H           7.3016   -0.8665    0.0000 H       1  UNL1        0.0287
     40 H           8.2254   -0.6852    0.0000 H       1  UNL1        0.0427
     41 H           8.7829   -0.0678    0.0000 H       1  UNL1        0.0427
     42 H           8.7819    2.4851    0.0000 H       1  UNL1        0.0473
     43 H           8.3553    3.1584    0.0000 H       1  UNL1        0.0473
     44 H           4.5784    1.6930    0.0000 H       1  UNL1        0.1060
     45 H           7.4324   -1.2826    0.0000 H       1  UNL1        0.0622
     46 H           6.0996    4.7114    0.0000 H       1  UNL1        0.0595
     47 H           4.1532   -1.6244    0.0000 H       1  UNL1        0.0673
     48 H           4.9888    4.6721    0.0000 H       1  UNL1        0.0605
     49 H           4.3197    4.2858    0.0000 H       1  UNL1        0.0605
     50 H           6.7678   -2.8034    0.0000 H       1  UNL1        0.0654
     51 H           3.0385   -0.8818    0.0000 H       1  UNL1        0.0323
     52 H           3.5173   -1.6164    0.0000 H       1  UNL1        0.0323
     53 H           4.2519   -1.1376    0.0000 H       1  UNL1        0.0323
     54 H           3.8675    3.5984    0.0000 H       1  UNL1        0.0342
     55 H           3.4619    4.3758    0.0000 H       1  UNL1        0.0342
     56 H           2.6845    3.9703    0.0000 H       1  UNL1        0.0342
     57 H           5.0416   -4.4957    0.0000 H       1  UNL1        0.0660
     58 H           5.9070   -4.6369    0.0000 H       1  UNL1        0.0660
     59 H           6.0482   -3.7715    0.0000 H       1  UNL1        0.0660
@<TRIPOS>BOND
     1     1    20    1
     2     1    25    1
     3    20     2    1
     4     2    29    1
     5     3    23    2
     6     4    27    1
     7     4    31    1
     8     5    29    2
     9     6     9    1
    10     6    15    1
    11     6    18    1
    12     7    10    1
    13     7    19    1
    14     7    23   am
    15     8     9    1
    16     8    10    1
    17     8    14    1
    18     8    16    1
    19     9    13    1
    20     9    32    1
    21    10    11    1
    22    10    33    1
    23    11    12    1
    24    11    20    1
    25    11    34    1
    26    12    13    1
    27    12    17    1
    28    12    35    1
    29    13    36    1
    30    13    37    1
    31    14    15    1
    32    14    38    1
    33    14    39    1
    34    15    40    1
    35    15    41    1
    36    16    19   ar
    37    16    21   ar
    38    17    18    1
    39    17    22    2
    40    18    42    1
    41    18    43    1
    42    19    24   ar
    43    20    44    1
    44    21    26   ar
    45    21    45    1
    46    22    25    1
    47    22    46    1
    48    23    28    1
    49    24    27   ar
    50    24    47    1
    51    25    48    1
    52    25    49    1
    53    26    27   ar
    54    26    50    1
    55    28    51    1
    56    28    52    1
    57    28    53    1
    58    29    30    1
    59    30    54    1
    60    30    55    1
    61    30    56    1
    62    31    57    1
    63    31    58    1
    64    31    59    1
