@<TRIPOS>MOLECULE
IMPHY009862
 22 22 0 0 0
SMALL
GASTEIGER

@<TRIPOS>ATOM
      1 O           2.8660   -2.5000    0.0000 O.3     1  UNL1       -0.4951
      2 O           3.7320    2.0000    0.0000 O.3     1  UNL1       -0.4645
      3 O           2.0000    2.0000    0.0000 O.2     1  UNL1       -0.2450
      4 C           2.8660    0.5000    0.0000 C.ar    1  UNL1        0.0592
      5 C           2.8660   -1.5000    0.0000 C.ar    1  UNL1        0.1201
      6 C           2.0000    0.0000    0.0000 C.ar    1  UNL1       -0.0443
      7 C           3.7320    0.0000    0.0000 C.ar    1  UNL1       -0.0443
      8 C           2.0000   -1.0000    0.0000 C.ar    1  UNL1       -0.0192
      9 C           3.7320   -1.0000    0.0000 C.ar    1  UNL1       -0.0192
     10 C           2.8660    1.5000    0.0000 C.2     1  UNL1        0.3389
     11 C           2.0000   -3.0000    0.0000 C.3     1  UNL1        0.0788
     12 C           3.7320    3.0000    0.0000 C.3     1  UNL1        0.0820
     13 H           1.4631    0.3100    0.0000 H       1  UNL1        0.0627
     14 H           4.2690    0.3100    0.0000 H       1  UNL1        0.0627
     15 H           1.4631   -1.3100    0.0000 H       1  UNL1        0.0654
     16 H           4.2690   -1.3100    0.0000 H       1  UNL1        0.0654
     17 H           1.6900   -2.4631    0.0000 H       1  UNL1        0.0660
     18 H           1.4631   -3.3100    0.0000 H       1  UNL1        0.0660
     19 H           2.3100   -3.5369    0.0000 H       1  UNL1        0.0660
     20 H           4.3520    3.0000    0.0000 H       1  UNL1        0.0661
     21 H           3.7320    3.6200    0.0000 H       1  UNL1        0.0661
     22 H           3.1120    3.0000    0.0000 H       1  UNL1        0.0661
@<TRIPOS>BOND
     1     1     5    1
     2     1    11    1
     3     2    10    1
     4     2    12    1
     5     3    10    2
     6     4     6   ar
     7     4     7   ar
     8     4    10    1
     9     5     8   ar
    10     5     9   ar
    11     6     8   ar
    12     6    13    1
    13     7     9   ar
    14     7    14    1
    15     8    15    1
    16     9    16    1
    17    11    17    1
    18    11    18    1
    19    11    19    1
    20    12    20    1
    21    12    21    1
    22    12    22    1
