@<TRIPOS>MOLECULE
IMPHY000498
 60 62 0 0 0
SMALL
GASTEIGER

@<TRIPOS>ATOM
      1 O           5.8671    0.2747    0.0000 O.3     1  UNL1       -0.3354
      2 O           6.8671   -0.7253    0.0000 O.3     1  UNL1       -0.3116
      3 O           5.1350   -0.7253    0.0000 O.3     1  UNL1       -0.3404
      4 O           8.1271    1.5348    0.0000 O.3     1  UNL1       -0.3837
      5 O           6.3671    2.8136    0.0000 O.3     1  UNL1       -0.3864
      6 O           6.8671   -2.7253    0.0000 O.3     1  UNL1       -0.3841
      7 O           8.5613    0.6349    0.0000 O.3     1  UNL1       -0.4556
      8 O           5.1350   -3.7253    0.0000 O.3     1  UNL1       -0.3864
      9 O           3.4030   -2.7253    0.0000 O.3     1  UNL1       -0.3865
     10 O           4.3991    2.5130    0.0000 O.3     1  UNL1       -0.3924
     11 O           2.5369   -1.2253    0.0000 O.3     1  UNL1       -0.3924
     12 O           9.7202   -0.6523    0.0000 O.2     1  UNL1       -0.2450
     13 O          10.5828    3.6204    0.0000 O.3     1  UNL1       -0.5032
     14 O          12.9007    1.0461    0.0000 O.3     1  UNL1       -0.5032
     15 O          12.4849    3.0024    0.0000 O.3     1  UNL1       -0.5009
     16 C           6.8671    0.2747    0.0000 C.3     1  UNL1        0.2365
     17 C           7.1761    1.2258    0.0000 C.3     1  UNL1        0.1406
     18 C           6.3671    1.8136    0.0000 C.3     1  UNL1        0.1145
     19 C           5.5580    1.2258    0.0000 C.3     1  UNL1        0.1135
     20 C           6.0010   -1.2253    0.0000 C.3     1  UNL1        0.1913
     21 C           6.0010   -2.2253    0.0000 C.3     1  UNL1        0.1342
     22 C           5.1350   -2.7253    0.0000 C.3     1  UNL1        0.1141
     23 C           4.2690   -2.2253    0.0000 C.3     1  UNL1        0.1119
     24 C           7.8181   -0.0343    0.0000 C.3     1  UNL1        0.1493
     25 C           4.2690   -1.2253    0.0000 C.3     1  UNL1        0.1130
     26 C           4.6070    1.5348    0.0000 C.3     1  UNL1        0.0730
     27 C           3.4030   -0.7253    0.0000 C.3     1  UNL1        0.0730
     28 C           9.5123    0.3258    0.0000 C.2     1  UNL1        0.3396
     29 C          10.2555    0.9950    0.0000 C.ar    1  UNL1        0.0661
     30 C          11.2065    0.6860    0.0000 C.ar    1  UNL1       -0.0023
     31 C          10.0476    1.9731    0.0000 C.ar    1  UNL1       -0.0023
     32 C          10.7907    2.6423    0.0000 C.ar    1  UNL1        0.1628
     33 C          11.9497    1.3551    0.0000 C.ar    1  UNL1        0.1628
     34 C          11.7418    2.3332    0.0000 C.ar    1  UNL1        0.2006
     35 H           7.6145    0.7874    0.0000 H       1  UNL1        0.0675
     36 H           6.9195    2.0951    0.0000 H       1  UNL1        0.0648
     37 H           5.1196    0.7874    0.0000 H       1  UNL1        0.0647
     38 H           6.0010   -0.6053    0.0000 H       1  UNL1        0.0939
     39 H           6.5380   -1.9153    0.0000 H       1  UNL1        0.0671
     40 H           5.6720   -3.0353    0.0000 H       1  UNL1        0.0648
     41 H           3.7320   -1.9153    0.0000 H       1  UNL1        0.0647
     42 H           7.5270   -0.5817    0.0000 H       1  UNL1        0.0753
     43 H           8.3067   -0.4160    0.0000 H       1  UNL1        0.0753
     44 H           4.2690   -0.6053    0.0000 H       1  UNL1        0.0647
     45 H           3.9874    1.5132    0.0000 H       1  UNL1        0.0584
     46 H           4.5207    0.9208    0.0000 H       1  UNL1        0.0584
     47 H           8.2560    2.1413    0.0000 H       1  UNL1        0.2101
     48 H           3.8015   -0.2503    0.0000 H       1  UNL1        0.0584
     49 H           3.0044   -0.2503    0.0000 H       1  UNL1        0.0584
     50 H           6.9040    3.1236    0.0000 H       1  UNL1        0.2100
     51 H           6.8671   -3.3453    0.0000 H       1  UNL1        0.2101
     52 H           4.5981   -4.0353    0.0000 H       1  UNL1        0.2100
     53 H           3.4030   -3.3453    0.0000 H       1  UNL1        0.2100
     54 H           3.8094    2.7045    0.0000 H       1  UNL1        0.2095
     55 H           2.0000   -0.9153    0.0000 H       1  UNL1        0.2095
     56 H          11.3354    0.0795    0.0000 H       1  UNL1        0.0663
     57 H           9.4579    2.1647    0.0000 H       1  UNL1        0.0663
     58 H          11.0435    4.0353    0.0000 H       1  UNL1        0.2923
     59 H          13.0296    0.4396    0.0000 H       1  UNL1        0.2923
     60 H          13.0746    2.8108    0.0000 H       1  UNL1        0.2924
@<TRIPOS>BOND
     1     1    16    1
     2     1    19    1
     3     2    16    1
     4     2    20    1
     5     3    20    1
     6     3    25    1
     7     4    17    1
     8     4    47    1
     9     5    18    1
    10     5    50    1
    11     6    21    1
    12     6    51    1
    13     7    24    1
    14     7    28    1
    15     8    22    1
    16     8    52    1
    17     9    23    1
    18     9    53    1
    19    10    26    1
    20    10    54    1
    21    11    27    1
    22    11    55    1
    23    12    28    2
    24    13    32    1
    25    13    58    1
    26    14    33    1
    27    14    59    1
    28    15    34    1
    29    15    60    1
    30    16    17    1
    31    16    24    1
    32    17    18    1
    33    17    35    1
    34    18    19    1
    35    18    36    1
    36    19    26    1
    37    19    37    1
    38    20    21    1
    39    20    38    1
    40    21    22    1
    41    21    39    1
    42    22    23    1
    43    22    40    1
    44    23    25    1
    45    23    41    1
    46    24    42    1
    47    24    43    1
    48    25    27    1
    49    25    44    1
    50    26    45    1
    51    26    46    1
    52    27    48    1
    53    27    49    1
    54    28    29    1
    55    29    30   ar
    56    29    31   ar
    57    30    33   ar
    58    30    56    1
    59    31    32   ar
    60    31    57    1
    61    32    34   ar
    62    33    34   ar
