@<TRIPOS>MOLECULE
IMPHY000425
 43 46 0 0 0
SMALL
GASTEIGER

@<TRIPOS>ATOM
      1 O           5.6346   -3.2290    0.0000 O.2     1  UNL1       -0.2723
      2 O           6.0580    3.2290    0.0000 O.2     1  UNL1       -0.2755
      3 N           5.0193   -1.5692    0.0000 N.ar    1  UNL1       -0.2902
      4 N           4.7160    2.2893    0.0000 N.am    1  UNL1       -0.2850
      5 C           6.1557   -0.2043    0.0000 C.3     1  UNL1        0.0127
      6 C           6.9638   -0.8615    0.0000 C.3     1  UNL1       -0.0335
      7 C           5.2160   -0.5463    0.0000 C.ar    1  UNL1        0.0402
      8 C           6.6557    0.6617    0.0000 C.3     1  UNL1       -0.0337
      9 C           7.0954    0.1377    0.0000 C.3     1  UNL1       -0.0448
     10 C           6.7909   -1.8886    0.0000 C.3     1  UNL1        0.0278
     11 C           4.2763   -0.2043    0.0000 C.ar    1  UNL1        0.0056
     12 C           6.4820    1.6465    0.0000 C.3     1  UNL1        0.0251
     13 C           5.8120   -2.2449    0.0000 C.2     1  UNL1        0.2316
     14 C           7.8614   -0.5051    0.0000 C.3     1  UNL1       -0.0644
     15 C           4.0381   -1.7913    0.0000 C.ar    1  UNL1        0.0133
     16 C           3.5572   -0.9078    0.0000 C.ar    1  UNL1       -0.0357
     17 C           3.7763    0.6617    0.0000 C.ar    1  UNL1        0.0051
     18 C           5.7160    2.2893    0.0000 C.2     1  UNL1        0.2172
     19 C           3.9499    1.6465    0.0000 C.ar    1  UNL1        0.0412
     20 C           2.8031    0.2904    0.0000 C.ar    1  UNL1       -0.0522
     21 C           3.1624    2.3283    0.0000 C.ar    1  UNL1       -0.0399
     22 C           2.0000    0.9538    0.0000 C.ar    1  UNL1       -0.0611
     23 C           2.1809    1.9796    0.0000 C.ar    1  UNL1       -0.0600
     24 H           7.5486   -1.0675    0.0000 H       1  UNL1        0.0279
     25 H           7.2669   -0.3206    0.0000 H       1  UNL1        0.0279
     26 H           7.0811    0.2108    0.0000 H       1  UNL1        0.0279
     27 H           7.2097    0.9400    0.0000 H       1  UNL1        0.0279
     28 H           7.5703    0.5363    0.0000 H       1  UNL1        0.0272
     29 H           6.7854    0.6747    0.0000 H       1  UNL1        0.0272
     30 H           6.9001   -2.4989    0.0000 H       1  UNL1        0.0361
     31 H           7.4108   -1.8854    0.0000 H       1  UNL1        0.0361
     32 H           7.0978    1.5746    0.0000 H       1  UNL1        0.0359
     33 H           6.7276    2.2158    0.0000 H       1  UNL1        0.0359
     34 H           7.4629   -0.9800    0.0000 H       1  UNL1        0.0230
     35 H           8.3364   -0.9036    0.0000 H       1  UNL1        0.0230
     36 H           8.2599   -0.0301    0.0000 H       1  UNL1        0.0230
     37 H           3.7826   -2.3562    0.0000 H       1  UNL1        0.0814
     38 H           2.9440   -0.8158    0.0000 H       1  UNL1        0.0639
     39 H           4.5039    2.8719    0.0000 H       1  UNL1        0.1548
     40 H           2.7025   -0.3214    0.0000 H       1  UNL1        0.0624
     41 H           3.2771    2.9376    0.0000 H       1  UNL1        0.0636
     42 H           1.4182    0.7395    0.0000 H       1  UNL1        0.0618
     43 H           1.7075    2.3800    0.0000 H       1  UNL1        0.0618
@<TRIPOS>BOND
     1     1    13    2
     2     2    18    2
     3     3     7   ar
     4     3    13   am
     5     3    15   ar
     6     4    18   am
     7     4    19    1
     8     4    39    1
     9     5     6    1
    10     5     7    1
    11     5     8    1
    12     5     9    1
    13     6    10    1
    14     6    24    1
    15     6    25    1
    16     7    11   ar
    17     8    12    1
    18     8    26    1
    19     8    27    1
    20     9    14    1
    21     9    28    1
    22     9    29    1
    23    10    13    1
    24    10    30    1
    25    10    31    1
    26    11    16   ar
    27    11    17    1
    28    12    18    1
    29    12    32    1
    30    12    33    1
    31    14    34    1
    32    14    35    1
    33    14    36    1
    34    15    16   ar
    35    15    37    1
    36    16    38    1
    37    17    19   ar
    38    17    20   ar
    39    19    21   ar
    40    20    22   ar
    41    20    40    1
    42    21    23   ar
    43    21    41    1
    44    22    23   ar
    45    22    42    1
    46    23    43    1
