@<TRIPOS>MOLECULE
IMPHY000731
 37 38 0 0 0
SMALL
GASTEIGER

@<TRIPOS>ATOM
      1 O           4.2690   -0.2500    0.0000 O.3     1  UNL1       -0.4548
      2 O           2.5369   -1.2500    0.0000 O.3     1  UNL1       -0.3852
      3 O           2.5369   -3.2500    0.0000 O.3     1  UNL1       -0.3851
      4 O           6.0010   -4.2500    0.0000 O.3     1  UNL1       -0.4773
      5 O           6.8671   -2.7500    0.0000 O.2     1  UNL1       -0.2455
      6 O           6.0010   -0.2500    0.0000 O.2     1  UNL1       -0.2449
      7 O           3.4030    3.2500    0.0000 O.3     1  UNL1       -0.5032
      8 O           6.8671    3.2500    0.0000 O.3     1  UNL1       -0.5032
      9 O           5.1350    4.2500    0.0000 O.3     1  UNL1       -0.5009
     10 C           4.2690   -1.2500    0.0000 C.3     1  UNL1        0.1360
     11 C           3.4030   -1.7500    0.0000 C.3     1  UNL1        0.1216
     12 C           5.1350   -1.7500    0.0000 C.3     1  UNL1        0.0187
     13 C           3.4030   -2.7500    0.0000 C.3     1  UNL1        0.1034
     14 C           5.1350   -2.7500    0.0000 C.2     1  UNL1        0.0386
     15 C           4.2690   -3.2500    0.0000 C.2     1  UNL1       -0.0432
     16 C           6.0010   -3.2500    0.0000 C.2     1  UNL1        0.3327
     17 C           5.1350    0.2500    0.0000 C.2     1  UNL1        0.3398
     18 C           5.1350    1.2500    0.0000 C.ar    1  UNL1        0.0661
     19 C           6.0010    1.7500    0.0000 C.ar    1  UNL1       -0.0023
     20 C           4.2690    1.7500    0.0000 C.ar    1  UNL1       -0.0023
     21 C           4.2690    2.7500    0.0000 C.ar    1  UNL1        0.1628
     22 C           6.0010    2.7500    0.0000 C.ar    1  UNL1        0.1628
     23 C           5.1350    3.2500    0.0000 C.ar    1  UNL1        0.2006
     24 H           4.8059   -0.9400    0.0000 H       1  UNL1        0.0764
     25 H           3.4030   -1.1300    0.0000 H       1  UNL1        0.0660
     26 H           5.7456   -1.8577    0.0000 H       1  UNL1        0.0352
     27 H           5.3471   -1.1674    0.0000 H       1  UNL1        0.0352
     28 H           3.4030   -3.3700    0.0000 H       1  UNL1        0.0665
     29 H           4.2690   -3.8700    0.0000 H       1  UNL1        0.0603
     30 H           2.0000   -1.5600    0.0000 H       1  UNL1        0.2101
     31 H           2.5369   -3.8700    0.0000 H       1  UNL1        0.2103
     32 H           6.5380    1.4400    0.0000 H       1  UNL1        0.0663
     33 H           3.7320    1.4400    0.0000 H       1  UNL1        0.0663
     34 H           6.5380   -4.5600    0.0000 H       1  UNL1        0.2954
     35 H           2.8660    2.9400    0.0000 H       1  UNL1        0.2923
     36 H           7.4040    2.9400    0.0000 H       1  UNL1        0.2923
     37 H           5.6720    4.5600    0.0000 H       1  UNL1        0.2924
@<TRIPOS>BOND
     1    10     1    1
     2     1    17    1
     3    11     2    1
     4     2    30    1
     5    13     3    1
     6     3    31    1
     7     4    16    1
     8     4    34    1
     9     5    16    2
    10     6    17    2
    11     7    21    1
    12     7    35    1
    13     8    22    1
    14     8    36    1
    15     9    23    1
    16     9    37    1
    17    10    11    1
    18    10    12    1
    19    10    24    1
    20    11    13    1
    21    11    25    1
    22    12    14    1
    23    12    26    1
    24    12    27    1
    25    13    15    1
    26    13    28    1
    27    14    15    2
    28    14    16    1
    29    15    29    1
    30    17    18    1
    31    18    19   ar
    32    18    20   ar
    33    19    22   ar
    34    19    32    1
    35    20    21   ar
    36    20    33    1
    37    21    23   ar
    38    22    23   ar
