@<TRIPOS>MOLECULE
IMPHY006645
 202 211 0 0 0
SMALL
GASTEIGER

@<TRIPOS>ATOM
      1 O          15.5595   -1.4130    0.0000 O.3     1  UNL1       -0.3449
      2 O           9.9307   -5.2020    0.0000 O.3     1  UNL1       -0.3944
      3 O           7.9579   -4.8046    0.0000 O.2     1  UNL1       -0.2970
      4 O           8.2331   -1.7820    0.0000 O.3     1  UNL1       -0.3880
      5 O          15.1958    0.2804    0.0000 O.3     1  UNL1       -0.3461
      6 O           6.0010   -3.6480    0.0000 O.3     1  UNL1       -0.3413
      7 O          17.5149   -0.9931    0.0000 O.3     1  UNL1       -0.3378
      8 O          18.1289    0.9104    0.0000 O.3     1  UNL1       -0.3400
      9 O          16.7874    2.3938    0.0000 O.3     1  UNL1       -0.3868
     10 O           4.2690   -3.6480    0.0000 O.3     1  UNL1       -0.3405
     11 O          19.2083   -0.6294    0.0000 O.3     1  UNL1       -0.3431
     12 O           6.0010   -5.6480    0.0000 O.3     1  UNL1       -0.3841
     13 O          19.7334    1.5626    0.0000 O.3     1  UNL1       -0.3405
     14 O           4.2690   -6.6480    0.0000 O.3     1  UNL1       -0.3864
     15 O          17.9348   -2.9485    0.0000 O.3     1  UNL1       -0.3841
     16 O           2.5369   -5.6480    0.0000 O.3     1  UNL1       -0.3865
     17 O          17.3757    2.7631    0.0000 O.3     1  UNL1       -0.3378
     18 O          19.8383   -3.5625    0.0000 O.3     1  UNL1       -0.3864
     19 O          21.3217   -2.2211    0.0000 O.3     1  UNL1       -0.3866
     20 O           2.5369   -2.6480    0.0000 O.3     1  UNL1       -0.3924
     21 O          18.6037    4.3418    0.0000 O.3     1  UNL1       -0.3864
     22 O          20.5848    4.0676    0.0000 O.3     1  UNL1       -0.3865
     23 O          21.9519    3.0042    0.0000 O.3     1  UNL1       -0.3460
     24 O          17.6131    4.4788    0.0000 O.3     1  UNL1       -0.3461
     25 O          15.3946    3.0373    0.0000 O.3     1  UNL1       -0.3841
     26 O          14.6414    4.8900    0.0000 O.3     1  UNL1       -0.3864
     27 O          23.3191    1.9407    0.0000 O.3     1  UNL1       -0.3405
     28 O          15.8694    6.4687    0.0000 O.3     1  UNL1       -0.3869
     29 O          23.1799    4.5828    0.0000 O.3     1  UNL1       -0.3841
     30 O          25.1610    4.3087    0.0000 O.3     1  UNL1       -0.3864
     31 O          25.9142    2.4559    0.0000 O.3     1  UNL1       -0.3865
     32 O          25.6768    0.7402    0.0000 O.3     1  UNL1       -0.3924
     33 C          11.1532   -3.2810    0.0000 C.3     1  UNL1       -0.0203
     34 C          11.4639   -2.3305    0.0000 C.3     1  UNL1       -0.0293
     35 C          10.1747   -3.4872    0.0000 C.3     1  UNL1        0.0097
     36 C          12.4797   -2.1000    0.0000 C.3     1  UNL1       -0.0252
     37 C           9.5069   -2.7429    0.0000 C.3     1  UNL1       -0.0202
     38 C          13.1813   -2.8699    0.0000 C.3     1  UNL1       -0.0278
     39 C          11.8369   -4.0669    0.0000 C.3     1  UNL1       -0.0465
     40 C          10.7961   -1.5862    0.0000 C.3     1  UNL1       -0.0489
     41 C          12.8577   -3.8600    0.0000 C.3     1  UNL1       -0.0486
     42 C           9.8176   -1.7924    0.0000 C.3     1  UNL1       -0.0486
     43 C          14.2447   -2.6544    0.0000 C.3     1  UNL1       -0.0052
     44 C           8.5991   -3.1480    0.0000 C.3     1  UNL1        0.0495
     45 C           9.6740   -4.3460    0.0000 C.3     1  UNL1        0.0147
     46 C          12.7928   -1.0612    0.0000 C.3     1  UNL1       -0.0447
     47 C          11.1865   -4.2805    0.0000 C.3     1  UNL1       -0.0587
     48 C          10.5477   -4.4151    0.0000 C.3     1  UNL1        0.0510
     49 C          14.5818   -1.6230    0.0000 C.3     1  UNL1        0.0672
     50 C          11.8062   -1.3609    0.0000 C.3     1  UNL1       -0.0590
     51 C           8.7022   -4.1368    0.0000 C.2     1  UNL1        0.1400
     52 C          13.8509   -0.8211    0.0000 C.3     1  UNL1       -0.0255
     53 C           7.7331   -2.6480    0.0000 C.3     1  UNL1        0.0757
     54 C          15.1940   -2.9687    0.0000 C.3     1  UNL1       -0.0572
     55 C          14.4471   -3.6336    0.0000 C.3     1  UNL1       -0.0572
     56 C           6.8671   -2.1480    0.0000 C.3     1  UNL1        0.0065
     57 C           7.2331   -3.5141    0.0000 C.3     1  UNL1       -0.0353
     58 C          15.8665   -0.4613    0.0000 C.3     1  UNL1        0.1882
     59 C           6.0010   -2.6480    0.0000 C.3     1  UNL1        0.0827
     60 C          16.8442   -0.2513    0.0000 C.3     1  UNL1        0.1410
     61 C           5.1350   -2.1480    0.0000 C.2     1  UNL1       -0.0567
     62 C          17.1512    0.7004    0.0000 C.3     1  UNL1        0.1206
     63 C          15.5027    1.2321    0.0000 C.3     1  UNL1        0.0792
     64 C          16.4804    1.4421    0.0000 C.3     1  UNL1        0.1073
     65 C           5.1350   -4.1480    0.0000 C.3     1  UNL1        0.1886
     66 C           5.1350   -1.1480    0.0000 C.2     1  UNL1       -0.0772
     67 C          18.4666   -1.3001    0.0000 C.3     1  UNL1        0.1884
     68 C           5.1350   -5.1480    0.0000 C.3     1  UNL1        0.1341
     69 C           4.2690   -0.6480    0.0000 C.3     1  UNL1       -0.0440
     70 C           6.0010   -0.6480    0.0000 C.3     1  UNL1       -0.0440
     71 C          18.7428    1.6997    0.0000 C.3     1  UNL1        0.1888
     72 C           4.2690   -5.6480    0.0000 C.3     1  UNL1        0.1141
     73 C          18.6766   -2.2778    0.0000 C.3     1  UNL1        0.1341
     74 C           3.4030   -4.1480    0.0000 C.3     1  UNL1        0.1130
     75 C           3.4030   -5.1480    0.0000 C.3     1  UNL1        0.1119
     76 C          18.3663    2.6261    0.0000 C.3     1  UNL1        0.1406
     77 C          19.6283   -2.5848    0.0000 C.3     1  UNL1        0.1140
     78 C          20.1600   -0.9364    0.0000 C.3     1  UNL1        0.0873
     79 C          20.3700   -1.9141    0.0000 C.3     1  UNL1        0.1095
     80 C           2.5369   -3.6480    0.0000 C.3     1  UNL1        0.0730
     81 C          18.9803    3.4154    0.0000 C.3     1  UNL1        0.1144
     82 C          20.3474    2.3519    0.0000 C.3     1  UNL1        0.1134
     83 C          19.9708    3.2783    0.0000 C.3     1  UNL1        0.1119
     84 C          20.9017   -0.2656    0.0000 C.3     1  UNL1       -0.0361
     85 C          21.3380    2.2149    0.0000 C.3     1  UNL1        0.0796
     86 C          16.9991    3.6895    0.0000 C.3     1  UNL1        0.1881
     87 C          16.0086    3.8266    0.0000 C.3     1  UNL1        0.1341
     88 C          15.6320    4.7530    0.0000 C.3     1  UNL1        0.1137
     89 C          17.2365    5.4052    0.0000 C.3     1  UNL1        0.0792
     90 C          22.9425    2.8671    0.0000 C.3     1  UNL1        0.1880
     91 C          16.2460    5.5423    0.0000 C.3     1  UNL1        0.1069
     92 C          23.5565    3.6564    0.0000 C.3     1  UNL1        0.1341
     93 C          24.5471    3.5193    0.0000 C.3     1  UNL1        0.1141
     94 C          24.3096    1.8036    0.0000 C.3     1  UNL1        0.1130
     95 C          24.9236    2.5930    0.0000 C.3     1  UNL1        0.1119
     96 C          24.6862    0.8773    0.0000 C.3     1  UNL1        0.0730
     97 H          12.0364   -2.9588    0.0000 H       1  UNL1        0.0312
     98 H           8.8755   -2.1739    0.0000 H       1  UNL1        0.0315
     99 H          13.7465   -3.5047    0.0000 H       1  UNL1        0.0312
    100 H          11.3063   -4.3878    0.0000 H       1  UNL1        0.0271
    101 H          12.0622   -4.6445    0.0000 H       1  UNL1        0.0271
    102 H          11.3224   -1.2586    0.0000 H       1  UNL1        0.0268
    103 H          10.5648   -1.0109    0.0000 H       1  UNL1        0.0268
    104 H          12.8751   -4.4798    0.0000 H       1  UNL1        0.0268
    105 H          13.4713   -3.9489    0.0000 H       1  UNL1        0.0268
    106 H           9.7970   -1.1728    0.0000 H       1  UNL1        0.0268
    107 H           9.2038   -1.7051    0.0000 H       1  UNL1        0.0268
    108 H           7.8860   -3.6107    0.0000 H       1  UNL1        0.0408
    109 H           9.4805   -4.9350    0.0000 H       1  UNL1        0.0348
    110 H          10.2394   -4.6003    0.0000 H       1  UNL1        0.0348
    111 H          12.7611   -0.4420    0.0000 H       1  UNL1        0.0271
    112 H          12.1774   -0.9865    0.0000 H       1  UNL1        0.0271
    113 H          10.5668   -4.3011    0.0000 H       1  UNL1        0.0235
    114 H          11.2071   -4.9001    0.0000 H       1  UNL1        0.0235
    115 H          11.8061   -4.2599    0.0000 H       1  UNL1        0.0235
    116 H          10.9618   -4.8765    0.0000 H       1  UNL1        0.0563
    117 H          11.0741   -4.0874    0.0000 H       1  UNL1        0.0563
    118 H          14.7710   -1.0326    0.0000 H       1  UNL1        0.0602
    119 H          12.2644   -0.9433    0.0000 H       1  UNL1        0.0235
    120 H          11.3886   -0.9026    0.0000 H       1  UNL1        0.0235
    121 H          11.3479   -1.7785    0.0000 H       1  UNL1        0.0235
    122 H          14.3739   -0.4881    0.0000 H       1  UNL1        0.0290
    123 H          13.6123   -0.2488    0.0000 H       1  UNL1        0.0290
    124 H          13.8400   -3.7592    0.0000 H       1  UNL1        0.0236
    125 H          14.5727   -4.2408    0.0000 H       1  UNL1        0.0236
    126 H          15.0543   -3.5081    0.0000 H       1  UNL1        0.0236
    127 H          14.9991   -3.5572    0.0000 H       1  UNL1        0.0236
    128 H          15.7826   -3.1636    0.0000 H       1  UNL1        0.0236
    129 H          15.3889   -2.3801    0.0000 H       1  UNL1        0.0236
    130 H           7.2656   -1.6731    0.0000 H       1  UNL1        0.0321
    131 H           6.4685   -1.6731    0.0000 H       1  UNL1        0.0321
    132 H           6.6962   -3.2041    0.0000 H       1  UNL1        0.0257
    133 H           6.9231   -4.0510    0.0000 H       1  UNL1        0.0257
    134 H           7.7700   -3.8241    0.0000 H       1  UNL1        0.0257
    135 H          10.1620   -5.7773    0.0000 H       1  UNL1        0.2094
    136 H           7.9231   -1.2451    0.0000 H       1  UNL1        0.2102
    137 H          16.2823   -0.9212    0.0000 H       1  UNL1        0.0937
    138 H           6.5380   -2.9580    0.0000 H       1  UNL1        0.0642
    139 H          17.4503   -0.1212    0.0000 H       1  UNL1        0.0675
    140 H           4.5981   -2.4580    0.0000 H       1  UNL1        0.0597
    141 H          17.3415    1.2904    0.0000 H       1  UNL1        0.0651
    142 H          15.4798    1.8517    0.0000 H       1  UNL1        0.0587
    143 H          14.8886    1.3171    0.0000 H       1  UNL1        0.0587
    144 H          16.0646    1.9020    0.0000 H       1  UNL1        0.0643
    145 H           5.6720   -4.4580    0.0000 H       1  UNL1        0.0938
    146 H          18.0067   -1.7159    0.0000 H       1  UNL1        0.0938
    147 H           5.1350   -5.7680    0.0000 H       1  UNL1        0.0671
    148 H          16.3716    2.8537    0.0000 H       1  UNL1        0.2100
    149 H           6.3110   -1.1850    0.0000 H       1  UNL1        0.0274
    150 H           6.5380   -0.3380    0.0000 H       1  UNL1        0.0274
    151 H           5.6910   -0.1111    0.0000 H       1  UNL1        0.0274
    152 H           4.5790   -0.1111    0.0000 H       1  UNL1        0.0274
    153 H           3.7320   -0.3380    0.0000 H       1  UNL1        0.0274
    154 H           3.9590   -1.1850    0.0000 H       1  UNL1        0.0274
    155 H          18.9763    1.1253    0.0000 H       1  UNL1        0.0938
    156 H           3.7320   -5.9580    0.0000 H       1  UNL1        0.0648
    157 H          18.8068   -2.8840    0.0000 H       1  UNL1        0.0671
    158 H           3.4030   -3.5280    0.0000 H       1  UNL1        0.0647
    159 H           2.8660   -4.8380    0.0000 H       1  UNL1        0.0647
    160 H          17.9856    2.1367    0.0000 H       1  UNL1        0.0675
    161 H          20.2183   -2.7751    0.0000 H       1  UNL1        0.0648
    162 H           6.5380   -5.3380    0.0000 H       1  UNL1        0.2101
    163 H          20.0298   -0.3302    0.0000 H       1  UNL1        0.0621
    164 H          20.8299   -1.4982    0.0000 H       1  UNL1        0.0646
    165 H           1.9264   -3.5404    0.0000 H       1  UNL1        0.0584
    166 H           2.3249   -4.2306    0.0000 H       1  UNL1        0.0584
    167 H          19.3609    3.9048    0.0000 H       1  UNL1        0.0648
    168 H          20.5809    1.7776    0.0000 H       1  UNL1        0.0647
    169 H           3.7320   -6.9580    0.0000 H       1  UNL1        0.2100
    170 H          18.0650   -3.5546    0.0000 H       1  UNL1        0.2101
    171 H          20.5850    3.1933    0.0000 H       1  UNL1        0.0647
    172 H           2.0000   -5.3380    0.0000 H       1  UNL1        0.2100
    173 H          21.3176   -0.7255    0.0000 H       1  UNL1        0.0255
    174 H          21.3616    0.1502    0.0000 H       1  UNL1        0.0255
    175 H          20.4859    0.1942    0.0000 H       1  UNL1        0.0255
    176 H          20.4283   -3.7528    0.0000 H       1  UNL1        0.2100
    177 H          21.1476    1.6248    0.0000 H       1  UNL1        0.0587
    178 H          21.8860    1.9249    0.0000 H       1  UNL1        0.0587
    179 H          21.7816   -1.8052    0.0000 H       1  UNL1        0.2100
    180 H           2.0000   -2.3380    0.0000 H       1  UNL1        0.2095
    181 H          16.6185    3.2001    0.0000 H       1  UNL1        0.0937
    182 H          18.9844    4.8311    0.0000 H       1  UNL1        0.2100
    183 H          20.3513    4.6420    0.0000 H       1  UNL1        0.2100
    184 H          15.3944    3.9116    0.0000 H       1  UNL1        0.0671
    185 H          15.3985    5.3273    0.0000 H       1  UNL1        0.0647
    186 H          17.8427    5.5354    0.0000 H       1  UNL1        0.0587
    187 H          17.2136    6.0248    0.0000 H       1  UNL1        0.0587
    188 H          22.7090    3.4414    0.0000 H       1  UNL1        0.0937
    189 H          16.6267    6.0317    0.0000 H       1  UNL1        0.0643
    190 H          14.7804    3.1223    0.0000 H       1  UNL1        0.2101
    191 H          23.9372    4.1458    0.0000 H       1  UNL1        0.0671
    192 H          14.4080    5.4644    0.0000 H       1  UNL1        0.2100
    193 H          25.1612    3.4344    0.0000 H       1  UNL1        0.0648
    194 H          16.2501    6.9580    0.0000 H       1  UNL1        0.2100
    195 H          23.9290    1.3143    0.0000 H       1  UNL1        0.0647
    196 H          25.1571    2.0186    0.0000 H       1  UNL1        0.0647
    197 H          23.5606    5.0722    0.0000 H       1  UNL1        0.2101
    198 H          24.0800    0.7471    0.0000 H       1  UNL1        0.0584
    199 H          24.7092    0.2577    0.0000 H       1  UNL1        0.0584
    200 H          25.7752    4.2237    0.0000 H       1  UNL1        0.2100
    201 H          26.2949    2.9453    0.0000 H       1  UNL1        0.2100
    202 H          25.9103    0.1658    0.0000 H       1  UNL1        0.2095
@<TRIPOS>BOND
     1    49     1    1
     2    58     1    1
     3     2    48    1
     4     2   135    1
     5     3    51    2
     6    53     4    1
     7     4   136    1
     8     5    58    1
     9     5    63    1
    10    59     6    1
    11    65     6    1
    12    60     7    1
    13    67     7    1
    14    62     8    1
    15    71     8    1
    16    64     9    1
    17     9   148    1
    18    10    65    1
    19    10    74    1
    20    11    67    1
    21    11    78    1
    22    68    12    1
    23    12   162    1
    24    13    71    1
    25    13    82    1
    26    72    14    1
    27    14   169    1
    28    73    15    1
    29    15   170    1
    30    75    16    1
    31    16   172    1
    32    76    17    1
    33    86    17    1
    34    77    18    1
    35    18   176    1
    36    79    19    1
    37    19   179    1
    38    20    80    1
    39    20   180    1
    40    81    21    1
    41    21   182    1
    42    83    22    1
    43    22   183    1
    44    23    85    1
    45    90    23    1
    46    24    86    1
    47    24    89    1
    48    87    25    1
    49    25   190    1
    50    88    26    1
    51    26   192    1
    52    27    90    1
    53    27    94    1
    54    91    28    1
    55    28   194    1
    56    92    29    1
    57    29   197    1
    58    93    30    1
    59    30   200    1
    60    95    31    1
    61    31   201    1
    62    32    96    1
    63    32   202    1
    64    33    34    1
    65    33    35    1
    66    33    39    1
    67    33    47    1
    68    34    36    1
    69    34    40    1
    70    34    97    1
    71    35    37    1
    72    35    45    1
    73    35    48    1
    74    36    38    1
    75    36    46    1
    76    36    50    1
    77    37    42    1
    78    37    44    1
    79    37    98    1
    80    38    41    1
    81    38    43    1
    82    38    99    1
    83    39    41    1
    84    39   100    1
    85    39   101    1
    86    40    42    1
    87    40   102    1
    88    40   103    1
    89    41   104    1
    90    41   105    1
    91    42   106    1
    92    42   107    1
    93    43    49    1
    94    43    54    1
    95    43    55    1
    96    44    51    1
    97    44    53    1
    98    44   108    1
    99    45    51    1
   100    45   109    1
   101    45   110    1
   102    46    52    1
   103    46   111    1
   104    46   112    1
   105    47   113    1
   106    47   114    1
   107    47   115    1
   108    48   116    1
   109    48   117    1
   110    49    52    1
   111    49   118    1
   112    50   119    1
   113    50   120    1
   114    50   121    1
   115    52   122    1
   116    52   123    1
   117    53    56    1
   118    53    57    1
   119    54   127    1
   120    54   128    1
   121    54   129    1
   122    55   124    1
   123    55   125    1
   124    55   126    1
   125    56    59    1
   126    56   130    1
   127    56   131    1
   128    57   132    1
   129    57   133    1
   130    57   134    1
   131    58    60    1
   132    58   137    1
   133    59    61    1
   134    59   138    1
   135    60    62    1
   136    60   139    1
   137    61    66    2
   138    61   140    1
   139    62    64    1
   140    62   141    1
   141    63    64    1
   142    63   142    1
   143    63   143    1
   144    64   144    1
   145    65    68    1
   146    65   145    1
   147    66    69    1
   148    66    70    1
   149    67    73    1
   150    67   146    1
   151    68    72    1
   152    68   147    1
   153    69   152    1
   154    69   153    1
   155    69   154    1
   156    70   149    1
   157    70   150    1
   158    70   151    1
   159    71    76    1
   160    71   155    1
   161    72    75    1
   162    72   156    1
   163    73    77    1
   164    73   157    1
   165    74    75    1
   166    74    80    1
   167    74   158    1
   168    75   159    1
   169    76    81    1
   170    76   160    1
   171    77    79    1
   172    77   161    1
   173    78    79    1
   174    78    84    1
   175    78   163    1
   176    79   164    1
   177    80   165    1
   178    80   166    1
   179    81    83    1
   180    81   167    1
   181    82    83    1
   182    82    85    1
   183    82   168    1
   184    83   171    1
   185    84   173    1
   186    84   174    1
   187    84   175    1
   188    85   177    1
   189    85   178    1
   190    86    87    1
   191    86   181    1
   192    87    88    1
   193    87   184    1
   194    88    91    1
   195    88   185    1
   196    89    91    1
   197    89   186    1
   198    89   187    1
   199    90    92    1
   200    90   188    1
   201    91   189    1
   202    92    93    1
   203    92   191    1
   204    93    95    1
   205    93   193    1
   206    94    95    1
   207    94    96    1
   208    94   195    1
   209    95   196    1
   210    96   198    1
   211    96   199    1
