@<TRIPOS>MOLECULE
IMPHY000871
 48 50 0 0 0
SMALL
GASTEIGER

@<TRIPOS>ATOM
      1 O           8.1424   -0.9202    0.0000 O.2     1  UNL1       -0.4545
      2 O           6.3301    1.8845    0.0000 O.3     1  UNL1       -0.4940
      3 O           4.5981   -1.1155    0.0000 O.3     1  UNL1       -0.4946
      4 O           9.7260   -1.8476    0.0000 O.3     1  UNL1       -0.5059
      5 O          12.7260   -0.1155    0.0000 O.3     1  UNL1       -0.5066
      6 C           7.1962    0.3845    0.0000 C.ar    1  UNL1        0.0629
      7 C           5.4641    0.3845    0.0000 C.ar    1  UNL1        0.0404
      8 C           6.3301    0.8845    0.0000 C.ar    1  UNL1        0.1378
      9 C           7.1962   -0.6155    0.0000 C.ar    1  UNL1        0.1427
     10 C           5.4641   -0.6155    0.0000 C.ar    1  UNL1        0.1306
     11 C           4.5981    0.8845    0.0000 C.3     1  UNL1       -0.0023
     12 C           8.1424    0.6892    0.0000 C.ar    1  UNL1       -0.0044
     13 C           8.7260   -0.1155    0.0000 C.ar    1  UNL1        0.1399
     14 C           6.3301   -1.1155    0.0000 C.ar    1  UNL1        0.0235
     15 C           9.7260   -0.1155    0.0000 C.ar    1  UNL1        0.0589
     16 C           3.7320    0.3845    0.0000 C.2     1  UNL1       -0.0807
     17 C           2.8660    0.8845    0.0000 C.2     1  UNL1       -0.0793
     18 C          10.2260   -0.9815    0.0000 C.ar    1  UNL1        0.1310
     19 C          10.2260    0.7505    0.0000 C.ar    1  UNL1       -0.0441
     20 C          11.2260   -0.9815    0.0000 C.ar    1  UNL1        0.0220
     21 C           5.4641    2.3845    0.0000 C.3     1  UNL1        0.0788
     22 C          11.2260    0.7505    0.0000 C.ar    1  UNL1       -0.0193
     23 C           2.0000    0.3845    0.0000 C.3     1  UNL1       -0.0440
     24 C           2.8660    1.8845    0.0000 C.3     1  UNL1       -0.0440
     25 C          11.7260   -0.1155    0.0000 C.ar    1  UNL1        0.1204
     26 C           4.5981   -2.1155    0.0000 C.3     1  UNL1        0.0788
     27 H           4.9966    1.3594    0.0000 H       1  UNL1        0.0358
     28 H           4.1996    1.3594    0.0000 H       1  UNL1        0.0358
     29 H           8.3350    1.2786    0.0000 H       1  UNL1        0.0663
     30 H           6.3301   -1.7355    0.0000 H       1  UNL1        0.0691
     31 H           3.7320   -0.2355    0.0000 H       1  UNL1        0.0575
     32 H           9.9160    1.2874    0.0000 H       1  UNL1        0.0627
     33 H          11.5360   -1.5185    0.0000 H       1  UNL1        0.0691
     34 H           5.7741    2.9214    0.0000 H       1  UNL1        0.0660
     35 H           4.9272    2.6945    0.0000 H       1  UNL1        0.0660
     36 H           5.1541    1.8476    0.0000 H       1  UNL1        0.0660
     37 H          11.5360    1.2874    0.0000 H       1  UNL1        0.0654
     38 H           1.6900    0.9214    0.0000 H       1  UNL1        0.0274
     39 H           3.4860    1.8845    0.0000 H       1  UNL1        0.0274
     40 H           2.8660    2.5045    0.0000 H       1  UNL1        0.0274
     41 H           2.2460    1.8845    0.0000 H       1  UNL1        0.0274
     42 H           1.4631    0.0745    0.0000 H       1  UNL1        0.0274
     43 H           2.3100   -0.1524    0.0000 H       1  UNL1        0.0274
     44 H           3.9781   -2.1155    0.0000 H       1  UNL1        0.0660
     45 H           4.5981   -2.7355    0.0000 H       1  UNL1        0.0660
     46 H           5.2181   -2.1155    0.0000 H       1  UNL1        0.0660
     47 H          10.0360   -2.3845    0.0000 H       1  UNL1        0.2922
     48 H          13.0360    0.4214    0.0000 H       1  UNL1        0.2921
@<TRIPOS>BOND
     1     1     9   ar
     2     1    13   ar
     3     2     8    1
     4     2    21    1
     5     3    10    1
     6     3    26    1
     7     4    18    1
     8     4    47    1
     9     5    25    1
    10     5    48    1
    11     6     8   ar
    12     6     9   ar
    13     6    12   ar
    14     7     8   ar
    15     7    10   ar
    16     7    11    1
    17     9    14   ar
    18    10    14   ar
    19    11    16    1
    20    11    27    1
    21    11    28    1
    22    12    13   ar
    23    12    29    1
    24    13    15    1
    25    14    30    1
    26    15    18   ar
    27    15    19   ar
    28    16    17    2
    29    16    31    1
    30    17    23    1
    31    17    24    1
    32    18    20   ar
    33    19    22   ar
    34    19    32    1
    35    20    25   ar
    36    20    33    1
    37    21    34    1
    38    21    35    1
    39    21    36    1
    40    22    25   ar
    41    22    37    1
    42    23    38    1
    43    23    42    1
    44    23    43    1
    45    24    39    1
    46    24    40    1
    47    24    41    1
    48    26    44    1
    49    26    45    1
    50    26    46    1
