@<TRIPOS>MOLECULE
IMPHY004583
 43 45 0 0 0
SMALL
GASTEIGER

@<TRIPOS>ATOM
      1 O           8.0901   -1.4917    0.0000 O.2     1  UNL1       -0.4618
      2 O           6.3301    1.5429    0.0000 O.3     1  UNL1       -0.5055
      3 O           4.5981   -1.4571    0.0000 O.3     1  UNL1       -0.5062
      4 O           8.0785    1.5775    0.0000 O.2     1  UNL1       -0.2863
      5 O          12.4525    2.0771    0.0000 O.3     1  UNL1       -0.5068
      6 C           5.4641    0.0429    0.0000 C.ar    1  UNL1        0.0400
      7 C           7.1962    0.0429    0.0000 C.ar    1  UNL1        0.1063
      8 C           6.3301    0.5429    0.0000 C.ar    1  UNL1        0.1381
      9 C           7.1962   -0.9571    0.0000 C.ar    1  UNL1        0.1454
     10 C           4.5981    0.5429    0.0000 C.3     1  UNL1       -0.0023
     11 C           5.4641   -0.9571    0.0000 C.ar    1  UNL1        0.1273
     12 C           8.0901    0.5776    0.0000 C.ar    1  UNL1        0.2037
     13 C           8.9962    0.0637    0.0000 C.ar    1  UNL1        0.0644
     14 C           6.3301   -1.4571    0.0000 C.ar    1  UNL1        0.0234
     15 C           9.8602    0.5671    0.0000 C.ar    1  UNL1       -0.0110
     16 C           3.7320    0.0429    0.0000 C.2     1  UNL1       -0.0807
     17 C           8.9962   -0.9779    0.0000 C.ar    1  UNL1        0.1038
     18 C           2.8660    0.5429    0.0000 C.2     1  UNL1       -0.0793
     19 C          10.7282    0.0704    0.0000 C.ar    1  UNL1       -0.0504
     20 C           9.8564    1.5671    0.0000 C.ar    1  UNL1       -0.0504
     21 C           2.0000    0.0429    0.0000 C.3     1  UNL1       -0.0440
     22 C           2.8660    1.5429    0.0000 C.3     1  UNL1       -0.0440
     23 C          11.5923    0.5738    0.0000 C.ar    1  UNL1       -0.0196
     24 C          10.7205    2.0704    0.0000 C.ar    1  UNL1       -0.0196
     25 C          11.5884    1.5737    0.0000 C.ar    1  UNL1        0.1169
     26 H           4.9966    1.0179    0.0000 H       1  UNL1        0.0358
     27 H           4.1996    1.0179    0.0000 H       1  UNL1        0.0358
     28 H           6.3301   -2.0771    0.0000 H       1  UNL1        0.0691
     29 H           3.7320   -0.5771    0.0000 H       1  UNL1        0.0575
     30 H           9.5319   -1.2900    0.0000 H       1  UNL1        0.1037
     31 H          10.7306   -0.5496    0.0000 H       1  UNL1        0.0625
     32 H           9.3183    1.8750    0.0000 H       1  UNL1        0.0625
     33 H           5.7932    1.8529    0.0000 H       1  UNL1        0.2922
     34 H           4.5981   -2.0771    0.0000 H       1  UNL1        0.2921
     35 H           1.6900    0.5799    0.0000 H       1  UNL1        0.0274
     36 H           3.4860    1.5429    0.0000 H       1  UNL1        0.0274
     37 H           2.8660    2.1629    0.0000 H       1  UNL1        0.0274
     38 H           2.2460    1.5429    0.0000 H       1  UNL1        0.0274
     39 H           1.4631   -0.2671    0.0000 H       1  UNL1        0.0274
     40 H           2.3100   -0.4940    0.0000 H       1  UNL1        0.0274
     41 H          12.1304    0.2658    0.0000 H       1  UNL1        0.0654
     42 H          10.7181    2.6904    0.0000 H       1  UNL1        0.0654
     43 H          12.9907    1.7692    0.0000 H       1  UNL1        0.2921
@<TRIPOS>BOND
     1     1     9   ar
     2     1    17   ar
     3     2     8    1
     4     2    33    1
     5     3    11    1
     6     3    34    1
     7     4    12    2
     8     5    25    1
     9     5    43    1
    10     6     8   ar
    11     6    10    1
    12     6    11   ar
    13     7     8   ar
    14     7     9   ar
    15     7    12   ar
    16     9    14   ar
    17    10    16    1
    18    10    26    1
    19    10    27    1
    20    11    14   ar
    21    12    13   ar
    22    13    15    1
    23    13    17   ar
    24    14    28    1
    25    15    19   ar
    26    15    20   ar
    27    16    18    2
    28    16    29    1
    29    17    30    1
    30    18    21    1
    31    18    22    1
    32    19    23   ar
    33    19    31    1
    34    20    24   ar
    35    20    32    1
    36    21    35    1
    37    21    39    1
    38    21    40    1
    39    22    36    1
    40    22    37    1
    41    22    38    1
    42    23    25   ar
    43    23    41    1
    44    24    25   ar
    45    24    42    1
