@<TRIPOS>MOLECULE
IMPHY006383
 60 62 0 0 0
SMALL
GASTEIGER

@<TRIPOS>ATOM
      1 O           8.1301   -1.1900    0.0000 O.2     1  UNL1       -0.4539
      2 O           4.6000   -1.2142    0.0000 O.3     1  UNL1       -0.4943
      3 O           6.3817    1.8446    0.0000 O.3     1  UNL1       -0.5052
      4 O           8.1301    1.8100    0.0000 O.2     1  UNL1       -0.2866
      5 O           8.9961   -2.6900    0.0000 O.3     1  UNL1       -0.5059
      6 O          12.4602   -2.6900    0.0000 O.3     1  UNL1       -0.5066
      7 C           7.2641    0.3100    0.0000 C.ar    1  UNL1        0.1063
      8 C           8.9961    0.3100    0.0000 C.ar    1  UNL1        0.0467
      9 C           7.2641   -0.6900    0.0000 C.ar    1  UNL1        0.1463
     10 C           8.9961   -0.6900    0.0000 C.ar    1  UNL1        0.1462
     11 C           8.1301    0.8100    0.0000 C.ar    1  UNL1        0.2001
     12 C           9.8622    0.8100    0.0000 C.3     1  UNL1       -0.0021
     13 C           6.3701    0.8447    0.0000 C.ar    1  UNL1        0.1418
     14 C           5.4641    0.3308    0.0000 C.ar    1  UNL1        0.0587
     15 C           6.3701   -1.2247    0.0000 C.ar    1  UNL1        0.0239
     16 C           5.4641   -0.7108    0.0000 C.ar    1  UNL1        0.1342
     17 C           9.8622   -1.1900    0.0000 C.ar    1  UNL1        0.0593
     18 C           4.6000    0.8342    0.0000 C.2     1  UNL1       -0.0512
     19 C           2.8680    0.8408    0.0000 C.3     1  UNL1       -0.0283
     20 C           9.8622    1.8100    0.0000 C.2     1  UNL1       -0.0807
     21 C           3.7320    0.3375    0.0000 C.2     1  UNL1       -0.0806
     22 C           9.8622   -2.1900    0.0000 C.ar    1  UNL1        0.1310
     23 C          10.7282   -0.6900    0.0000 C.ar    1  UNL1       -0.0441
     24 C          10.7282    2.3100    0.0000 C.2     1  UNL1       -0.0793
     25 C           2.0000    0.3442    0.0000 C.3     1  UNL1       -0.0592
     26 C           2.8718    1.8408    0.0000 C.3     1  UNL1       -0.0592
     27 C          10.7282   -2.6900    0.0000 C.ar    1  UNL1        0.0220
     28 C          11.5942   -1.1900    0.0000 C.ar    1  UNL1       -0.0193
     29 C          11.5942   -2.1900    0.0000 C.ar    1  UNL1        0.1204
     30 C          10.7282    3.3100    0.0000 C.3     1  UNL1       -0.0440
     31 C          11.5942    1.8100    0.0000 C.3     1  UNL1       -0.0440
     32 C           4.6038   -2.2141    0.0000 C.3     1  UNL1        0.0788
     33 H          10.0742    0.2274    0.0000 H       1  UNL1        0.0358
     34 H          10.4727    0.9177    0.0000 H       1  UNL1        0.0358
     35 H           6.3773   -1.8446    0.0000 H       1  UNL1        0.0691
     36 H           4.6024    1.4542    0.0000 H       1  UNL1        0.0623
     37 H           2.3322    1.1529    0.0000 H       1  UNL1        0.0338
     38 H           9.3252    2.1200    0.0000 H       1  UNL1        0.0575
     39 H           3.7296   -0.2825    0.0000 H       1  UNL1        0.0575
     40 H          10.7282   -0.0700    0.0000 H       1  UNL1        0.0627
     41 H           1.6921    0.8823    0.0000 H       1  UNL1        0.0235
     42 H           1.4619    0.0362    0.0000 H       1  UNL1        0.0235
     43 H           2.3079   -0.1940    0.0000 H       1  UNL1        0.0235
     44 H           3.4918    1.8384    0.0000 H       1  UNL1        0.0235
     45 H           2.8742    2.4608    0.0000 H       1  UNL1        0.0235
     46 H           2.2518    1.8432    0.0000 H       1  UNL1        0.0235
     47 H           5.8484    2.1608    0.0000 H       1  UNL1        0.2922
     48 H          10.7282   -3.3100    0.0000 H       1  UNL1        0.0691
     49 H          12.1311   -0.8800    0.0000 H       1  UNL1        0.0654
     50 H          11.2842    1.2731    0.0000 H       1  UNL1        0.0274
     51 H          12.1311    1.5000    0.0000 H       1  UNL1        0.0274
     52 H          11.9042    2.3469    0.0000 H       1  UNL1        0.0274
     53 H          11.3482    3.3100    0.0000 H       1  UNL1        0.0274
     54 H          10.7282    3.9300    0.0000 H       1  UNL1        0.0274
     55 H          10.1082    3.3100    0.0000 H       1  UNL1        0.0274
     56 H           3.9838   -2.2165    0.0000 H       1  UNL1        0.0660
     57 H           4.6062   -2.8341    0.0000 H       1  UNL1        0.0660
     58 H           5.2238   -2.2118    0.0000 H       1  UNL1        0.0660
     59 H           8.9961   -3.3100    0.0000 H       1  UNL1        0.2922
     60 H          12.9972   -2.3800    0.0000 H       1  UNL1        0.2921
@<TRIPOS>BOND
     1     1     9   ar
     2     1    10   ar
     3     2    16    1
     4     2    32    1
     5     3    13    1
     6     3    47    1
     7     4    11    2
     8     5    22    1
     9     5    59    1
    10     6    29    1
    11     6    60    1
    12     7     9   ar
    13     7    11   ar
    14     7    13   ar
    15     8    10   ar
    16     8    11   ar
    17     8    12    1
    18     9    15   ar
    19    10    17    1
    20    12    20    1
    21    12    33    1
    22    12    34    1
    23    13    14   ar
    24    14    16   ar
    25    14    18    1
    26    15    16   ar
    27    15    35    1
    28    17    22   ar
    29    17    23   ar
    30    18    21    2
    31    18    36    1
    32    19    21    1
    33    19    25    1
    34    19    26    1
    35    19    37    1
    36    20    24    2
    37    20    38    1
    38    21    39    1
    39    22    27   ar
    40    23    28   ar
    41    23    40    1
    42    24    30    1
    43    24    31    1
    44    25    41    1
    45    25    42    1
    46    25    43    1
    47    26    44    1
    48    26    45    1
    49    26    46    1
    50    27    29   ar
    51    27    48    1
    52    28    29   ar
    53    28    49    1
    54    30    53    1
    55    30    54    1
    56    30    55    1
    57    31    50    1
    58    31    51    1
    59    31    52    1
    60    32    56    1
    61    32    57    1
    62    32    58    1
