@<TRIPOS>MOLECULE
IMPHY009088
 82 86 0 0 0
SMALL
GASTEIGER

@<TRIPOS>ATOM
      1 O          11.1246    2.9508    0.0000 O.3     1  UNL1       -0.3912
      2 O           5.7726   -3.2628    0.0000 O.3     1  UNL1       -0.3909
      3 C           7.5167   -0.1936    0.0000 C.3     1  UNL1       -0.0196
      4 C           7.5167    0.8064    0.0000 C.3     1  UNL1       -0.0289
      5 C           8.4106    1.3411    0.0000 C.3     1  UNL1       -0.0252
      6 C           6.6507   -0.6936    0.0000 C.3     1  UNL1       -0.0028
      7 C           9.3167    0.8272    0.0000 C.3     1  UNL1       -0.0278
      8 C           8.4106   -0.7283    0.0000 C.3     1  UNL1       -0.0463
      9 C           9.3167   -0.2144    0.0000 C.3     1  UNL1       -0.0486
     10 C          10.2605    1.3625    0.0000 C.3     1  UNL1       -0.0056
     11 C           6.6507    1.3064    0.0000 C.3     1  UNL1       -0.0455
     12 C           5.7847   -0.1936    0.0000 C.2     1  UNL1       -0.0632
     13 C           8.3856    2.4258    0.0000 C.3     1  UNL1       -0.0447
     14 C           6.6667   -1.7351    0.0000 C.3     1  UNL1       -0.0164
     15 C           5.7847    0.8064    0.0000 C.3     1  UNL1       -0.0306
     16 C           4.8666   -1.7420    0.0000 C.3     1  UNL1        0.0152
     17 C           7.8588   -1.1333    0.0000 C.3     1  UNL1       -0.0585
     18 C           4.8746   -0.7004    0.0000 C.2     1  UNL1       -0.0609
     19 C          10.2605    2.4474    0.0000 C.3     1  UNL1        0.0606
     20 C           7.5408    1.8344    0.0000 C.3     1  UNL1       -0.0590
     21 C           5.7687   -2.2629    0.0000 C.3     1  UNL1        0.0651
     22 C           9.3167    2.9827    0.0000 C.3     1  UNL1       -0.0258
     23 C           7.2935   -1.4596    0.0000 C.3     1  UNL1       -0.0552
     24 C           3.9478   -0.1364    0.0000 C.3     1  UNL1       -0.0257
     25 C           3.9312   -2.2918    0.0000 C.3     1  UNL1       -0.0411
     26 C          11.2605    1.3586    0.0000 C.3     1  UNL1       -0.0572
     27 C          10.7572    0.4945    0.0000 C.3     1  UNL1       -0.0572
     28 C           2.9999   -0.6643    0.0000 C.3     1  UNL1       -0.0312
     29 C           2.9916   -1.7493    0.0000 C.3     1  UNL1       -0.0467
     30 C           4.8589   -2.7420    0.0000 C.3     1  UNL1       -0.0535
     31 C           2.0000   -0.6527    0.0000 C.3     1  UNL1       -0.0595
     32 C           2.5100    0.2074    0.0000 C.3     1  UNL1       -0.0595
     33 H           8.2561    0.3871    0.0000 H       1  UNL1        0.0312
     34 H          10.0512    0.3994    0.0000 H       1  UNL1        0.0312
     35 H           8.0060   -1.1980    0.0000 H       1  UNL1        0.0271
     36 H           8.8043   -1.2073    0.0000 H       1  UNL1        0.0271
     37 H           9.5258   -0.7981    0.0000 H       1  UNL1        0.0268
     38 H           9.9276   -0.1083    0.0000 H       1  UNL1        0.0268
     39 H           7.0492    1.7814    0.0000 H       1  UNL1        0.0271
     40 H           6.2522    1.7814    0.0000 H       1  UNL1        0.0271
     41 H           8.1631    3.0045    0.0000 H       1  UNL1        0.0271
     42 H           7.7773    2.3056    0.0000 H       1  UNL1        0.0271
     43 H           6.8848   -2.3155    0.0000 H       1  UNL1        0.0299
     44 H           7.2759   -1.6196    0.0000 H       1  UNL1        0.0299
     45 H           5.5726    1.3890    0.0000 H       1  UNL1        0.0310
     46 H           5.1741    0.6987    0.0000 H       1  UNL1        0.0310
     47 H           7.2762   -1.3454    0.0000 H       1  UNL1        0.0235
     48 H           8.0709   -1.7158    0.0000 H       1  UNL1        0.0235
     49 H           8.4414   -0.9211    0.0000 H       1  UNL1        0.0235
     50 H          10.7980    2.1385    0.0000 H       1  UNL1        0.0599
     51 H           7.8466    2.3737    0.0000 H       1  UNL1        0.0235
     52 H           7.0015    2.1402    0.0000 H       1  UNL1        0.0235
     53 H           7.2349    1.2951    0.0000 H       1  UNL1        0.0235
     54 H           6.3074   -2.5698    0.0000 H       1  UNL1        0.0602
     55 H           9.7103    3.4617    0.0000 H       1  UNL1        0.0290
     56 H           8.9121    3.4525    0.0000 H       1  UNL1        0.0290
     57 H           6.8185   -1.8582    0.0000 H       1  UNL1        0.0238
     58 H           7.6920   -1.9346    0.0000 H       1  UNL1        0.0238
     59 H           7.7684   -1.0611    0.0000 H       1  UNL1        0.0238
     60 H           4.3560    0.3303    0.0000 H       1  UNL1        0.0315
     61 H           3.5579    0.3457    0.0000 H       1  UNL1        0.0315
     62 H           3.5339   -2.7677    0.0000 H       1  UNL1        0.0275
     63 H           4.3322   -2.7647    0.0000 H       1  UNL1        0.0275
     64 H          11.2581    0.7386    0.0000 H       1  UNL1        0.0236
     65 H          11.8805    1.3562    0.0000 H       1  UNL1        0.0236
     66 H          11.2629    1.9786    0.0000 H       1  UNL1        0.0236
     67 H          10.2190    0.1866    0.0000 H       1  UNL1        0.0236
     68 H          11.0651   -0.0436    0.0000 H       1  UNL1        0.0236
     69 H          11.2953    0.8024    0.0000 H       1  UNL1        0.0236
     70 H           2.3816   -1.6385    0.0000 H       1  UNL1        0.0271
     71 H           2.7780   -2.3313    0.0000 H       1  UNL1        0.0271
     72 H           4.2389   -2.7372    0.0000 H       1  UNL1        0.0239
     73 H           4.8541   -3.3620    0.0000 H       1  UNL1        0.0239
     74 H           5.4789   -2.7468    0.0000 H       1  UNL1        0.0239
     75 H          11.1222    3.5708    0.0000 H       1  UNL1        0.2098
     76 H           6.3107   -3.5708    0.0000 H       1  UNL1        0.2098
     77 H           2.0072   -0.0328    0.0000 H       1  UNL1        0.0235
     78 H           1.3800   -0.6456    0.0000 H       1  UNL1        0.0235
     79 H           1.9928   -1.2727    0.0000 H       1  UNL1        0.0235
     80 H           3.0505    0.5112    0.0000 H       1  UNL1        0.0235
     81 H           2.2062    0.7479    0.0000 H       1  UNL1        0.0235
     82 H           1.9695   -0.0963    0.0000 H       1  UNL1        0.0235
@<TRIPOS>BOND
     1    19     1    1
     2     1    75    1
     3    21     2    1
     4     2    76    1
     5     3     4    1
     6     3     6    1
     7     3     8    1
     8     3    17    1
     9     4     5    1
    10     4    11    1
    11     4    33    1
    12     5     7    1
    13     5    13    1
    14     5    20    1
    15     6    12    1
    16     6    14    1
    17     6    23    1
    18     7     9    1
    19     7    10    1
    20     7    34    1
    21     8     9    1
    22     8    35    1
    23     8    36    1
    24     9    37    1
    25     9    38    1
    26    10    19    1
    27    10    26    1
    28    10    27    1
    29    11    15    1
    30    11    39    1
    31    11    40    1
    32    12    15    1
    33    12    18    2
    34    13    22    1
    35    13    41    1
    36    13    42    1
    37    14    21    1
    38    14    43    1
    39    14    44    1
    40    15    45    1
    41    15    46    1
    42    16    18    1
    43    16    21    1
    44    16    25    1
    45    16    30    1
    46    17    47    1
    47    17    48    1
    48    17    49    1
    49    18    24    1
    50    19    22    1
    51    19    50    1
    52    20    51    1
    53    20    52    1
    54    20    53    1
    55    21    54    1
    56    22    55    1
    57    22    56    1
    58    23    57    1
    59    23    58    1
    60    23    59    1
    61    24    28    1
    62    24    60    1
    63    24    61    1
    64    25    29    1
    65    25    62    1
    66    25    63    1
    67    26    64    1
    68    26    65    1
    69    26    66    1
    70    27    67    1
    71    27    68    1
    72    27    69    1
    73    28    29    1
    74    28    31    1
    75    28    32    1
    76    29    70    1
    77    29    71    1
    78    30    72    1
    79    30    73    1
    80    30    74    1
    81    31    77    1
    82    31    78    1
    83    31    79    1
    84    32    80    1
    85    32    81    1
    86    32    82    1
