@<TRIPOS>MOLECULE
IMPHY006849
 43 47 0 0 0
SMALL
GASTEIGER

@<TRIPOS>ATOM
      1 O           2.2314   -0.1372    0.0000 O.3     1  UNL1       -0.4811
      2 O           2.0000   -2.5922    0.0000 O.3     1  UNL1       -0.3878
      3 O           2.0000    2.2122    0.0000 O.3     1  UNL1       -0.4914
      4 N           6.1607   -1.1411    0.0000 N.3     1  UNL1       -0.2984
      5 C           3.6897   -0.6655    0.0000 C.3     1  UNL1        0.0624
      6 C           2.8660   -1.1411    0.0000 C.3     1  UNL1        0.1397
      7 C           4.5133   -1.1411    0.0000 C.2     1  UNL1       -0.0418
      8 C           5.3370   -0.6655    0.0000 C.3     1  UNL1        0.0363
      9 C           4.2392    0.0319    0.0000 C.3     1  UNL1       -0.0231
     10 C           3.6897    0.2855    0.0000 C.ar    1  UNL1        0.0150
     11 C           2.8660   -2.0922    0.0000 C.3     1  UNL1        0.0965
     12 C           5.3370    0.2855    0.0000 C.3     1  UNL1       -0.0078
     13 C           5.5918    0.0319    0.0000 C.3     1  UNL1        0.0004
     14 C           4.5133    0.7611    0.0000 C.ar    1  UNL1       -0.0377
     15 C           2.8660    0.7611    0.0000 C.ar    1  UNL1        0.1668
     16 C           4.5133   -2.0922    0.0000 C.2     1  UNL1       -0.0798
     17 C           3.6897   -2.5677    0.0000 C.3     1  UNL1       -0.0048
     18 C           4.5133    1.7122    0.0000 C.ar    1  UNL1       -0.0545
     19 C           2.8660    1.7122    0.0000 C.ar    1  UNL1        0.1618
     20 C           6.8418   -1.8732    0.0000 C.3     1  UNL1       -0.0122
     21 C           3.6897    2.1877    0.0000 C.ar    1  UNL1       -0.0160
     22 C           2.0000    3.2122    0.0000 C.3     1  UNL1        0.0790
     23 H           2.0496   -1.3775    0.0000 H       1  UNL1        0.0771
     24 H           5.3377   -1.5155    0.0000 H       1  UNL1        0.0512
     25 H           4.3760    0.6366    0.0000 H       1  UNL1        0.0290
     26 H           3.6795    0.2987    0.0000 H       1  UNL1        0.0290
     27 H           2.8660   -2.7122    0.0000 H       1  UNL1        0.0634
     28 H           5.9476    0.1779    0.0000 H       1  UNL1        0.0332
     29 H           5.5490    0.8681    0.0000 H       1  UNL1        0.0332
     30 H           6.1840    0.2157    0.0000 H       1  UNL1        0.0427
     31 H           5.4989    0.6449    0.0000 H       1  UNL1        0.0427
     32 H           5.0503   -2.4021    0.0000 H       1  UNL1        0.0573
     33 H           3.2912   -3.0426    0.0000 H       1  UNL1        0.0334
     34 H           4.0882   -3.0426    0.0000 H       1  UNL1        0.0334
     35 H           5.0503    2.0222    0.0000 H       1  UNL1        0.0622
     36 H           6.3879   -2.2955    0.0000 H       1  UNL1        0.0391
     37 H           7.2641   -2.3271    0.0000 H       1  UNL1        0.0391
     38 H           7.2957   -1.4509    0.0000 H       1  UNL1        0.0391
     39 H           3.6897    2.8077    0.0000 H       1  UNL1        0.0655
     40 H           2.0000   -3.2122    0.0000 H       1  UNL1        0.2100
     41 H           2.6200    3.2122    0.0000 H       1  UNL1        0.0660
     42 H           2.0000    3.8322    0.0000 H       1  UNL1        0.0660
     43 H           1.3800    3.2122    0.0000 H       1  UNL1        0.0660
@<TRIPOS>BOND
     1     1     6    1
     2     1    15    1
     3    11     2    1
     4     2    40    1
     5     3    19    1
     6     3    22    1
     7     4     8    1
     8     4    13    1
     9     4    20    1
    10     5     6    1
    11     5     7    1
    12     5     9    1
    13     5    10    1
    14     6    11    1
    15     6    23    1
    16     7     8    1
    17     7    16    2
    18     8    12    1
    19     8    24    1
    20     9    13    1
    21     9    25    1
    22     9    26    1
    23    10    14   ar
    24    10    15   ar
    25    11    17    1
    26    11    27    1
    27    12    14    1
    28    12    28    1
    29    12    29    1
    30    13    30    1
    31    13    31    1
    32    14    18   ar
    33    15    19   ar
    34    16    17    1
    35    16    32    1
    36    17    33    1
    37    17    34    1
    38    18    21   ar
    39    18    35    1
    40    19    21   ar
    41    20    36    1
    42    20    37    1
    43    20    38    1
    44    21    39    1
    45    22    41    1
    46    22    42    1
    47    22    43    1
