@<TRIPOS>MOLECULE
IMPHY009222
 53 56 0 0 0
SMALL
GASTEIGER

@<TRIPOS>ATOM
      1 O           4.9939    1.5585    0.0000 O.3     1  UNL1       -0.3875
      2 O           2.3052   -2.1910    0.0000 O.3     1  UNL1       -0.4802
      3 O           3.8128   -3.0437    0.0000 O.2     1  UNL1       -0.2504
      4 C           6.5090    0.3000    0.0000 C.3     1  UNL1        0.0043
      5 C           5.6405    0.7956    0.0000 C.3     1  UNL1        0.0776
      6 C           4.7330    0.2843    0.0000 C.3     1  UNL1        0.0011
      7 C           4.7302   -0.7574    0.0000 C.3     1  UNL1       -0.0175
      8 C           6.4845    1.4813    0.0000 C.3     1  UNL1       -0.0379
      9 C           6.5302   -0.7415    0.0000 C.3     1  UNL1       -0.0441
     10 C           5.4865    1.7837    0.0000 C.3     1  UNL1       -0.0224
     11 C           7.1606    2.4504    0.0000 C.3     1  UNL1       -0.0194
     12 C           5.6349   -1.2737    0.0000 C.3     1  UNL1       -0.0480
     13 C           7.4380    0.6699    0.0000 C.3     1  UNL1       -0.0234
     14 C           3.7975   -1.3118    0.0000 C.3     1  UNL1        0.0682
     15 C           3.8034    0.8437    0.0000 C.3     1  UNL1       -0.0447
     16 C           6.1630    2.5201    0.0000 C.3     1  UNL1       -0.0439
     17 C           7.7280    1.6270    0.0000 C.2     1  UNL1       -0.0729
     18 C           4.3936    1.2249    0.0000 C.3     1  UNL1       -0.0566
     19 C           2.8552   -0.7740    0.0000 C.3     1  UNL1       -0.0372
     20 C           2.8582    0.3110    0.0000 C.3     1  UNL1       -0.0515
     21 C           4.3052   -2.1733    0.0000 C.3     1  UNL1       -0.0491
     22 C           3.3052   -2.1822    0.0000 C.2     1  UNL1        0.3110
     23 C           8.7161    1.7809    0.0000 C.2     1  UNL1       -0.0992
     24 H           4.7377   -1.6073    0.0000 H       1  UNL1        0.0317
     25 H           6.1103    1.9756    0.0000 H       1  UNL1        0.0277
     26 H           5.8988    1.2778    0.0000 H       1  UNL1        0.0277
     27 H           6.7512   -1.3208    0.0000 H       1  UNL1        0.0272
     28 H           7.1388   -0.6229    0.0000 H       1  UNL1        0.0272
     29 H           5.1347    2.2942    0.0000 H       1  UNL1        0.0293
     30 H           4.9105    1.5543    0.0000 H       1  UNL1        0.0293
     31 H           7.4071    3.2639    0.0000 H       1  UNL1        0.0346
     32 H           5.2399   -1.7516    0.0000 H       1  UNL1        0.0269
     33 H           6.0382   -1.7446    0.0000 H       1  UNL1        0.0269
     34 H           7.5335    0.0573    0.0000 H       1  UNL1        0.0316
     35 H           8.0565    0.6267    0.0000 H       1  UNL1        0.0316
     36 H           4.2093    1.3124    0.0000 H       1  UNL1        0.0272
     37 H           3.4111    1.3238    0.0000 H       1  UNL1        0.0272
     38 H           6.3428    3.1135    0.0000 H       1  UNL1        0.0272
     39 H           5.6246    2.8275    0.0000 H       1  UNL1        0.0272
     40 H           4.9768    1.4353    0.0000 H       1  UNL1        0.0236
     41 H           4.1831    1.8081    0.0000 H       1  UNL1        0.0236
     42 H           3.8104    1.0144    0.0000 H       1  UNL1        0.0236
     43 H           2.2446   -0.6662    0.0000 H       1  UNL1        0.0276
     44 H           2.6446   -1.3571    0.0000 H       1  UNL1        0.0276
     45 H           2.6507    0.8953    0.0000 H       1  UNL1        0.0266
     46 H           2.2470    0.2066    0.0000 H       1  UNL1        0.0266
     47 H           4.8832    2.1685    0.0000 H       1  UNL1        0.2102
     48 H           3.7710   -2.4881    0.0000 H       1  UNL1        0.0240
     49 H           4.6199   -2.7075    0.0000 H       1  UNL1        0.0240
     50 H           4.8393   -1.8586    0.0000 H       1  UNL1        0.0240
     51 H           9.1051    1.2981    0.0000 H       1  UNL1        0.0534
     52 H           8.9397    2.3592    0.0000 H       1  UNL1        0.0534
     53 H           2.0000   -2.7307    0.0000 H       1  UNL1        0.2951
@<TRIPOS>BOND
     1     5     1    1
     2     1    47    1
     3     2    22    1
     4     2    53    1
     5     3    22    2
     6     4     5    1
     7     4     8    1
     8     4     9    1
     9     4    13    1
    10     5     6    1
    11     5    10    1
    12     6     7    1
    13     6    15    1
    14     6    18    1
    15     7    12    1
    16     7    14    1
    17     7    24    1
    18     8    11    1
    19     8    25    1
    20     8    26    1
    21     9    12    1
    22     9    27    1
    23     9    28    1
    24    10    16    1
    25    10    29    1
    26    10    30    1
    27    11    16    1
    28    11    17    1
    29    11    31    1
    30    12    32    1
    31    12    33    1
    32    13    17    1
    33    13    34    1
    34    13    35    1
    35    14    19    1
    36    14    21    1
    37    14    22    1
    38    15    20    1
    39    15    36    1
    40    15    37    1
    41    16    38    1
    42    16    39    1
    43    17    23    2
    44    18    40    1
    45    18    41    1
    46    18    42    1
    47    19    20    1
    48    19    43    1
    49    19    44    1
    50    20    45    1
    51    20    46    1
    52    21    48    1
    53    21    49    1
    54    21    50    1
    55    23    51    1
    56    23    52    1
