@<TRIPOS>MOLECULE
IMPHY009794
 69 75 0 0 0
SMALL
GASTEIGER

@<TRIPOS>ATOM
      1 O           6.4276   -2.7508    0.0000 O.3     1  UNL1       -0.3275
      2 O           6.9595   -3.7227    0.0000 O.3     1  UNL1       -0.4495
      3 O           3.7184   -3.5333    0.0000 O.3     1  UNL1       -0.4570
      4 O           7.9899   -1.1458    0.0000 O.3     1  UNL1       -0.3751
      5 O           3.9784    0.8631    0.0000 O.3     1  UNL1       -0.3586
      6 O           3.8048   -0.1217    0.0000 O.2     1  UNL1       -0.2913
      7 O           8.9990   -2.6861    0.0000 O.2     1  UNL1       -0.2474
      8 O           2.0000   -3.2071    0.0000 O.2     1  UNL1       -0.2505
      9 O           8.7131    0.9992    0.0000 O.2     1  UNL1       -0.2961
     10 C           6.1105   -1.8298    0.0000 C.3     1  UNL1        0.1647
     11 C           5.1708   -1.4878    0.0000 C.3     1  UNL1        0.0654
     12 C           5.7694   -2.8140    0.0000 C.3     1  UNL1        0.1799
     13 C           4.1423   -1.6528    0.0000 C.3     1  UNL1       -0.0034
     14 C           7.0502   -1.4878    0.0000 C.3     1  UNL1        0.1959
     15 C           4.6460   -3.1441    0.0000 C.3     1  UNL1        0.1457
     16 C           3.8775   -2.4875    0.0000 C.3     1  UNL1       -0.0048
     17 C           4.8444    0.3631    0.0000 C.3     1  UNL1        0.2322
     18 C           4.6708   -0.6217    0.0000 C.2     1  UNL1        0.1986
     19 C           5.6105    1.0058    0.0000 C.3     1  UNL1        0.0279
     20 C           3.1686   -1.9057    0.0000 C.3     1  UNL1        0.0599
     21 C           6.6105    1.0058    0.0000 C.3     1  UNL1       -0.0164
     22 C           7.5502   -0.6217    0.0000 C.3     1  UNL1       -0.0102
     23 C           7.9998   -2.6456    0.0000 C.2     1  UNL1        0.3430
     24 C           7.3765    0.3631    0.0000 C.3     1  UNL1       -0.0453
     25 C           6.1222   -3.7496    0.0000 C.3     1  UNL1       -0.0183
     26 C           3.4895   -0.8953    0.0000 C.3     1  UNL1       -0.0579
     27 C           7.1451    1.8998    0.0000 C.3     1  UNL1        0.0543
     28 C           5.0758    1.8998    0.0000 C.3     1  UNL1       -0.0257
     29 C           2.9474   -2.8871    0.0000 C.2     1  UNL1        0.3109
     30 C           2.4502   -1.2102    0.0000 C.3     1  UNL1       -0.0518
     31 C           6.6313    2.8059    0.0000 C.2     1  UNL1       -0.0382
     32 C           5.5897    2.8059    0.0000 C.2     1  UNL1       -0.0794
     33 C           7.6384    1.0299    0.0000 C.3     1  UNL1       -0.0485
     34 C           8.2298    1.8747    0.0000 C.2     1  UNL1        0.1474
     35 C           7.1665    3.7496    0.0000 C.2     1  UNL1       -0.0615
     36 C           8.7868    2.8059    0.0000 C.3     1  UNL1        0.0252
     37 C           8.2515    3.7496    0.0000 C.2     1  UNL1       -0.0766
     38 H           5.5693   -1.0128    0.0000 H       1  UNL1        0.0416
     39 H           4.8537   -3.7283    0.0000 H       1  UNL1        0.0775
     40 H           3.3167   -2.2231    0.0000 H       1  UNL1        0.0308
     41 H           3.5410   -3.0082    0.0000 H       1  UNL1        0.0308
     42 H           4.9991    1.1088    0.0000 H       1  UNL1        0.0363
     43 H           2.5745   -2.0830    0.0000 H       1  UNL1        0.0416
     44 H           7.2219    1.1088    0.0000 H       1  UNL1        0.0318
     45 H           7.9756   -1.0727    0.0000 H       1  UNL1        0.0299
     46 H           8.1042   -0.3435    0.0000 H       1  UNL1        0.0299
     47 H           7.9923    0.2911    0.0000 H       1  UNL1        0.0269
     48 H           7.6221    0.9324    0.0000 H       1  UNL1        0.0269
     49 H           5.5421   -3.9684    0.0000 H       1  UNL1        0.0270
     50 H           6.3410   -4.3298    0.0000 H       1  UNL1        0.0270
     51 H           6.7023   -3.5309    0.0000 H       1  UNL1        0.0270
     52 H           3.9591   -0.4906    0.0000 H       1  UNL1        0.0235
     53 H           3.0847   -0.4257    0.0000 H       1  UNL1        0.0235
     54 H           3.0198   -1.3001    0.0000 H       1  UNL1        0.0235
     55 H           4.5968    2.2934    0.0000 H       1  UNL1        0.0312
     56 H           4.6060    1.4952    0.0000 H       1  UNL1        0.0312
     57 H           8.4648   -1.5443    0.0000 H       1  UNL1        0.2110
     58 H           2.8814   -0.7647    0.0000 H       1  UNL1        0.0238
     59 H           2.0047   -0.7790    0.0000 H       1  UNL1        0.0238
     60 H           2.0189   -1.6556    0.0000 H       1  UNL1        0.0238
     61 H           3.9784    1.4831    0.0000 H       1  UNL1        0.2132
     62 H           5.2776    3.3416    0.0000 H       1  UNL1        0.0575
     63 H           7.0991    0.7241    0.0000 H       1  UNL1        0.0242
     64 H           7.9443    0.4906    0.0000 H       1  UNL1        0.0242
     65 H           8.1778    1.3358    0.0000 H       1  UNL1        0.0242
     66 H           6.8545    4.2854    0.0000 H       1  UNL1        0.0617
     67 H           9.2566    2.4013    0.0000 H       1  UNL1        0.0384
     68 H           9.2658    3.1995    0.0000 H       1  UNL1        0.0384
     69 H           8.5636    4.2854    0.0000 H       1  UNL1        0.0576
@<TRIPOS>BOND
     1     1    10    1
     2     1    17    1
     3     2    12    1
     4     2    23    1
     5     3    15    1
     6     3    29    1
     7     4    14    1
     8     4    57    1
     9     5    17    1
    10     5    61    1
    11     6    18    2
    12     7    23    2
    13     8    29    2
    14     9    34    2
    15    10    11    1
    16    10    12    1
    17    10    14    1
    18    11    13    1
    19    11    18    1
    20    11    38    1
    21    12    15    1
    22    12    25    1
    23    13    16    1
    24    13    20    1
    25    13    26    1
    26    14    22    1
    27    14    23    1
    28    15    16    1
    29    15    39    1
    30    16    40    1
    31    16    41    1
    32    17    18    1
    33    17    19    1
    34    19    21    1
    35    19    28    1
    36    19    42    1
    37    20    29    1
    38    20    30    1
    39    20    43    1
    40    21    24    1
    41    21    27    1
    42    21    44    1
    43    22    24    1
    44    22    45    1
    45    22    46    1
    46    24    47    1
    47    24    48    1
    48    25    49    1
    49    25    50    1
    50    25    51    1
    51    26    52    1
    52    26    53    1
    53    26    54    1
    54    27    31    1
    55    27    33    1
    56    27    34    1
    57    28    32    1
    58    28    55    1
    59    28    56    1
    60    30    58    1
    61    30    59    1
    62    30    60    1
    63    31    32    2
    64    31    35    1
    65    32    62    1
    66    33    63    1
    67    33    64    1
    68    33    65    1
    69    34    36    1
    70    35    37    2
    71    35    66    1
    72    36    37    1
    73    36    67    1
    74    36    68    1
    75    37    69    1
