@<TRIPOS>MOLECULE
IMPHY012954
 69 72 0 0 0
SMALL
GASTEIGER

@<TRIPOS>ATOM
      1 O           6.8671   -4.4050    0.0000 O.3     1  UNL1       -0.3366
      2 O           7.8376   -2.9105    0.0000 O.3     1  UNL1       -0.3457
      3 O           5.1350   -2.4050    0.0000 O.3     1  UNL1       -0.3313
      4 O          10.1818   -3.0686    0.0000 O.3     1  UNL1       -0.3812
      5 O           8.8546   -5.2899    0.0000 O.3     1  UNL1       -0.3837
      6 O           5.1350   -5.4050    0.0000 O.3     1  UNL1       -0.3863
      7 O           6.8671   -2.4050    0.0000 O.3     1  UNL1       -0.4608
      8 O           3.4030   -4.4050    0.0000 O.3     1  UNL1       -0.3865
      9 O          11.0100   -3.9287    0.0000 O.3     1  UNL1       -0.3920
     10 O           2.5369   -2.9050    0.0000 O.3     1  UNL1       -0.3924
     11 O           6.8671    3.5950    0.0000 O.2     1  UNL1       -0.2872
     12 O           7.7331    5.0950    0.0000 O.3     1  UNL1       -0.5059
     13 O          11.1972    5.0950    0.0000 O.3     1  UNL1       -0.5066
     14 C           6.0010   -3.9050    0.0000 C.3     1  UNL1        0.1519
     15 C           9.3158   -3.5686    0.0000 C.3     1  UNL1        0.1425
     16 C           8.6466   -4.3117    0.0000 C.3     1  UNL1        0.1387
     17 C           5.1350   -4.4050    0.0000 C.3     1  UNL1        0.1155
     18 C           7.7331   -3.9050    0.0000 C.3     1  UNL1        0.1885
     19 C           4.2690   -3.9050    0.0000 C.3     1  UNL1        0.1120
     20 C           6.0010   -2.9050    0.0000 C.3     1  UNL1        0.2312
     21 C           4.2690   -2.9050    0.0000 C.3     1  UNL1        0.1140
     22 C           8.8158   -2.7026    0.0000 C.3     1  UNL1        0.0843
     23 C          10.0589   -4.2377    0.0000 C.3     1  UNL1        0.0778
     24 C           3.4030   -2.4050    0.0000 C.3     1  UNL1        0.0731
     25 C           6.8671   -1.4050    0.0000 C.ar    1  UNL1        0.1240
     26 C           7.7331   -0.9050    0.0000 C.ar    1  UNL1       -0.0193
     27 C           6.0010   -0.9050    0.0000 C.ar    1  UNL1       -0.0193
     28 C           7.7331    0.0950    0.0000 C.ar    1  UNL1       -0.0511
     29 C           6.0010    0.0950    0.0000 C.ar    1  UNL1       -0.0511
     30 C           6.8671    0.5950    0.0000 C.ar    1  UNL1       -0.0247
     31 C           6.8671    1.5950    0.0000 C.2     1  UNL1       -0.0510
     32 C           7.7331    2.0950    0.0000 C.2     1  UNL1       -0.0137
     33 C           7.7331    3.0950    0.0000 C.2     1  UNL1        0.1896
     34 C           8.5991    3.5950    0.0000 C.ar    1  UNL1        0.0632
     35 C           8.5991    4.5950    0.0000 C.ar    1  UNL1        0.1311
     36 C           9.4651    3.0950    0.0000 C.ar    1  UNL1       -0.0440
     37 C           9.4651    5.0950    0.0000 C.ar    1  UNL1        0.0220
     38 C          10.3312    3.5950    0.0000 C.ar    1  UNL1       -0.0193
     39 C          10.3312    4.5950    0.0000 C.ar    1  UNL1        0.1204
     40 H           6.5380   -3.5950    0.0000 H       1  UNL1        0.0687
     41 H           9.2455   -4.4722    0.0000 H       1  UNL1        0.0675
     42 H           5.6720   -4.7150    0.0000 H       1  UNL1        0.0648
     43 H           7.2131   -3.5673    0.0000 H       1  UNL1        0.0938
     44 H           3.7320   -3.5950    0.0000 H       1  UNL1        0.0647
     45 H           6.0010   -2.2850    0.0000 H       1  UNL1        0.1084
     46 H           4.2690   -2.2850    0.0000 H       1  UNL1        0.0647
     47 H           9.3822   -2.4504    0.0000 H       1  UNL1        0.0591
     48 H           8.6242   -2.1129    0.0000 H       1  UNL1        0.0591
     49 H           9.5703   -4.6194    0.0000 H       1  UNL1        0.0587
     50 H          10.3500   -4.7852    0.0000 H       1  UNL1        0.0587
     51 H           3.8015   -1.9300    0.0000 H       1  UNL1        0.0584
     52 H           3.0044   -1.9300    0.0000 H       1  UNL1        0.0584
     53 H          10.1818   -2.4486    0.0000 H       1  UNL1        0.2105
     54 H           8.3938   -5.7048    0.0000 H       1  UNL1        0.2101
     55 H           4.5981   -5.7150    0.0000 H       1  UNL1        0.2100
     56 H           3.4030   -5.0250    0.0000 H       1  UNL1        0.2100
     57 H          11.4707   -4.3436    0.0000 H       1  UNL1        0.2095
     58 H           2.0000   -2.5950    0.0000 H       1  UNL1        0.2095
     59 H           8.2700   -1.2150    0.0000 H       1  UNL1        0.0654
     60 H           5.4641   -1.2150    0.0000 H       1  UNL1        0.0654
     61 H           8.2700    0.4050    0.0000 H       1  UNL1        0.0625
     62 H           5.4641    0.4050    0.0000 H       1  UNL1        0.0625
     63 H           6.3301    1.9050    0.0000 H       1  UNL1        0.0625
     64 H           8.2700    1.7850    0.0000 H       1  UNL1        0.0656
     65 H           9.4651    2.4750    0.0000 H       1  UNL1        0.0627
     66 H           9.4651    5.7150    0.0000 H       1  UNL1        0.0691
     67 H          10.8681    3.2850    0.0000 H       1  UNL1        0.0654
     68 H           7.7331    5.7150    0.0000 H       1  UNL1        0.2922
     69 H          11.1972    5.7150    0.0000 H       1  UNL1        0.2921
@<TRIPOS>BOND
     1     1    14    1
     2     1    18    1
     3     2    18    1
     4     2    22    1
     5     3    20    1
     6     3    21    1
     7     4    15    1
     8     4    53    1
     9     5    16    1
    10     5    54    1
    11     6    17    1
    12     6    55    1
    13     7    20    1
    14     7    25    1
    15     8    19    1
    16     8    56    1
    17     9    23    1
    18     9    57    1
    19    10    24    1
    20    10    58    1
    21    11    33    2
    22    12    35    1
    23    12    68    1
    24    13    39    1
    25    13    69    1
    26    14    17    1
    27    14    20    1
    28    14    40    1
    29    15    16    1
    30    15    22    1
    31    15    23    1
    32    16    18    1
    33    16    41    1
    34    17    19    1
    35    17    42    1
    36    18    43    1
    37    19    21    1
    38    19    44    1
    39    20    45    1
    40    21    24    1
    41    21    46    1
    42    22    47    1
    43    22    48    1
    44    23    49    1
    45    23    50    1
    46    24    51    1
    47    24    52    1
    48    25    26   ar
    49    25    27   ar
    50    26    28   ar
    51    26    59    1
    52    27    29   ar
    53    27    60    1
    54    28    30   ar
    55    28    61    1
    56    29    30   ar
    57    29    62    1
    58    30    31    1
    59    31    32    2
    60    31    63    1
    61    32    33    1
    62    32    64    1
    63    33    34    1
    64    34    35   ar
    65    34    36   ar
    66    35    37   ar
    67    36    38   ar
    68    36    65    1
    69    37    39   ar
    70    37    66    1
    71    38    39   ar
    72    38    67    1
