@<TRIPOS>MOLECULE
IMPHY017215
 68 71 0 0 0
SMALL
GASTEIGER

@<TRIPOS>ATOM
      1 O           7.0628    1.2008    0.0000 O.3     1  UNL1       -0.3912
      2 O           2.5357   -3.3515    0.0000 O.3     1  UNL1       -0.3918
      3 O          11.7640    3.2695    0.0000 O.3     1  UNL1       -0.4806
      4 O          12.1212    1.5747    0.0000 O.2     1  UNL1       -0.2510
      5 C           7.9288   -0.2992    0.0000 C.3     1  UNL1        0.0000
      6 C           7.9288   -1.2992    0.0000 C.3     1  UNL1       -0.0299
      7 C           7.0628   -1.7992    0.0000 C.3     1  UNL1       -0.0342
      8 C           6.1968   -1.2992    0.0000 C.3     1  UNL1       -0.0299
      9 C           5.2868   -1.8060    0.0000 C.3     1  UNL1       -0.0259
     10 C           8.8750    0.0055    0.0000 C.3     1  UNL1       -0.0304
     11 C           7.0628    0.2008    0.0000 C.3     1  UNL1        0.0614
     12 C           6.1968   -0.2992    0.0000 C.3     1  UNL1       -0.0227
     13 C           5.2787   -2.8476    0.0000 C.3     1  UNL1       -0.0330
     14 C           8.8750   -1.6039    0.0000 C.3     1  UNL1       -0.0491
     15 C           7.0789   -2.8407    0.0000 C.3     1  UNL1       -0.0494
     16 C           9.4586   -0.7992    0.0000 C.3     1  UNL1       -0.0491
     17 C           6.1808   -3.3685    0.0000 C.3     1  UNL1       -0.0494
     18 C           4.3599   -1.2420    0.0000 C.3     1  UNL1       -0.0448
     19 C           7.9288    0.7008    0.0000 C.3     1  UNL1       -0.0567
     20 C           9.1857    0.9560    0.0000 C.3     1  UNL1       -0.0400
     21 C           4.3433   -3.3974    0.0000 C.3     1  UNL1       -0.0235
     22 C           5.2945   -0.8061    0.0000 C.3     1  UNL1       -0.0590
     23 C           3.4120   -1.7699    0.0000 C.3     1  UNL1       -0.0263
     24 C           3.4037   -2.8549    0.0000 C.3     1  UNL1        0.0555
     25 C          10.1642    1.1623    0.0000 C.3     1  UNL1       -0.0401
     26 C           8.5179    1.7004    0.0000 C.3     1  UNL1       -0.0621
     27 C          10.4749    2.1128    0.0000 C.3     1  UNL1        0.0450
     28 C          11.4534    2.3190    0.0000 C.2     1  UNL1        0.3047
     29 H           8.0188   -2.1444    0.0000 H       1  UNL1        0.0310
     30 H           7.8022   -2.2185    0.0000 H       1  UNL1        0.0306
     31 H           6.9329   -0.8742    0.0000 H       1  UNL1        0.0310
     32 H           9.7148    0.1374    0.0000 H       1  UNL1        0.0310
     33 H           6.5259    0.5108    0.0000 H       1  UNL1        0.0599
     34 H           5.9847    0.2834    0.0000 H       1  UNL1        0.0293
     35 H           5.5862   -0.4069    0.0000 H       1  UNL1        0.0293
     36 H           5.2820   -3.6976    0.0000 H       1  UNL1        0.0307
     37 H           8.6240   -2.1708    0.0000 H       1  UNL1        0.0268
     38 H           9.4124   -1.9132    0.0000 H       1  UNL1        0.0268
     39 H           7.2969   -3.4211    0.0000 H       1  UNL1        0.0268
     40 H           7.6880   -2.7252    0.0000 H       1  UNL1        0.0268
     41 H           9.9195   -1.2139    0.0000 H       1  UNL1        0.0268
     42 H           9.9195   -0.3845    0.0000 H       1  UNL1        0.0268
     43 H           5.7835   -3.8444    0.0000 H       1  UNL1        0.0268
     44 H           6.5818   -3.8414    0.0000 H       1  UNL1        0.0268
     45 H           4.7681   -0.7753    0.0000 H       1  UNL1        0.0271
     46 H           3.9700   -0.7599    0.0000 H       1  UNL1        0.0271
     47 H           8.5488    0.7008    0.0000 H       1  UNL1        0.0236
     48 H           7.9288    1.3208    0.0000 H       1  UNL1        0.0236
     49 H           7.3088    0.7008    0.0000 H       1  UNL1        0.0236
     50 H           9.3783    1.5454    0.0000 H       1  UNL1        0.0301
     51 H           3.9460   -3.8734    0.0000 H       1  UNL1        0.0293
     52 H           4.7443   -3.8703    0.0000 H       1  UNL1        0.0293
     53 H           5.9145   -0.8109    0.0000 H       1  UNL1        0.0235
     54 H           5.2993   -0.1861    0.0000 H       1  UNL1        0.0235
     55 H           4.6745   -0.8013    0.0000 H       1  UNL1        0.0235
     56 H           3.2075   -1.1846    0.0000 H       1  UNL1        0.0290
     57 H           2.8004   -1.8713    0.0000 H       1  UNL1        0.0290
     58 H           3.4025   -3.4749    0.0000 H       1  UNL1        0.0593
     59 H           6.5259    1.5108    0.0000 H       1  UNL1        0.2098
     60 H          10.1848    0.5426    0.0000 H       1  UNL1        0.0273
     61 H          10.7780    1.0749    0.0000 H       1  UNL1        0.0273
     62 H           8.9793    2.1144    0.0000 H       1  UNL1        0.0233
     63 H           8.1038    2.1618    0.0000 H       1  UNL1        0.0233
     64 H           8.0564    1.2863    0.0000 H       1  UNL1        0.0233
     65 H           2.0000   -3.0395    0.0000 H       1  UNL1        0.2098
     66 H          10.4543    2.7324    0.0000 H       1  UNL1        0.0378
     67 H           9.8611    2.2001    0.0000 H       1  UNL1        0.0378
     68 H          12.3707    3.3974    0.0000 H       1  UNL1        0.2951
@<TRIPOS>BOND
     1    11     1    1
     2     1    59    1
     3    24     2    1
     4     2    65    1
     5     3    28    1
     6     3    68    1
     7     4    28    2
     8     5     6    1
     9     5    10    1
    10     5    11    1
    11     5    19    1
    12     6     7    1
    13     6    14    1
    14     6    29    1
    15     7     8    1
    16     7    15    1
    17     7    30    1
    18     8     9    1
    19     8    12    1
    20     8    31    1
    21     9    13    1
    22     9    18    1
    23     9    22    1
    24    10    16    1
    25    10    20    1
    26    10    32    1
    27    11    12    1
    28    11    33    1
    29    12    34    1
    30    12    35    1
    31    13    17    1
    32    13    21    1
    33    13    36    1
    34    14    16    1
    35    14    37    1
    36    14    38    1
    37    15    17    1
    38    15    39    1
    39    15    40    1
    40    16    41    1
    41    16    42    1
    42    17    43    1
    43    17    44    1
    44    18    23    1
    45    18    45    1
    46    18    46    1
    47    19    47    1
    48    19    48    1
    49    19    49    1
    50    20    25    1
    51    20    26    1
    52    20    50    1
    53    21    24    1
    54    21    51    1
    55    21    52    1
    56    22    53    1
    57    22    54    1
    58    22    55    1
    59    23    24    1
    60    23    56    1
    61    23    57    1
    62    24    58    1
    63    25    27    1
    64    25    60    1
    65    25    61    1
    66    26    62    1
    67    26    63    1
    68    26    64    1
    69    27    28    1
    70    27    66    1
    71    27    67    1
