@<TRIPOS>MOLECULE
IMPHY000455
 21 22 0 0 0
SMALL
GASTEIGER

@<TRIPOS>ATOM
      1 C           8.6601    1.4998    0.0000 C.ar    1  UNL1       -0.0221
      2 C           7.7959    1.9987    0.0000 C.3     1  UNL1        0.0290
      3 C           9.5273    1.9987    0.0000 C.ar    1  UNL1       -0.0043
      4 C           8.6601    0.4989    0.0000 C.ar    1  UNL1       -0.0043
      5 C           6.9287    1.4998    0.0000 C.3     1  UNL1        0.0380
      6 C          10.3945    1.4998    0.0000 C.ar    1  UNL1       -0.0003
      7 C           9.5273    0.0000    0.0000 C.ar    1  UNL1       -0.0003
      8 C           6.0615    1.9987    0.0000 C.3     1  UNL1        0.1597
      9 C          10.3945    0.4989    0.0000 C.ar    1  UNL1       -0.0000
     10 C           5.1973    1.4998    0.0000 C.3     1  UNL1        0.0973
     11 O           6.0615    2.9996    0.0000 O.3     1  UNL1       -0.2227
     12 C           4.3301    1.9987    0.0000 C.2     1  UNL1        0.1535
     13 C           3.4629    1.4998    0.0000 C.3     1  UNL1        0.0693
     14 O           4.3301    2.9996    0.0000 O.2     1  UNL1       -0.2960
     15 C           2.5986    1.9987    0.0000 C.3     1  UNL1        0.0341
     16 C           1.7314    1.4998    0.0000 C.ar    1  UNL1       -0.0218
     17 C           1.7314    0.4989    0.0000 C.ar    1  UNL1       -0.0043
     18 C           0.8642    1.9987    0.0000 C.ar    1  UNL1       -0.0043
     19 C           0.8642    0.0000    0.0000 C.ar    1  UNL1       -0.0003
     20 C           0.0000    1.4998    0.0000 C.ar    1  UNL1       -0.0003
     21 C           0.0000    0.4989    0.0000 C.ar    1  UNL1       -0.0000
@<TRIPOS>BOND
     1     1     2    1
     2     1     3   ar
     3     1     4   ar
     4     2     5    1
     5     3     6   ar
     6     4     7   ar
     7     6     9   ar
     8     7     9   ar
     9     8     5    1
    10     8    10    1
    11     8    11    1
    12    10    12    1
    13    12    13    1
    14    12    14    2
    15    13    15    1
    16    15    16    1
    17    16    17   ar
    18    16    18   ar
    19    17    19   ar
    20    18    20   ar
    21    19    21   ar
    22    20    21   ar
