@<TRIPOS>MOLECULE
IMPHY008060
 124 130 0 0 0
SMALL
GASTEIGER

@<TRIPOS>ATOM
      1 O           7.8620    4.6425    0.0000 O.3     1  UNL1       -0.3423
      2 O           9.6571    3.5689    0.0000 O.3     1  UNL1       -0.3892
      3 O           5.4100    3.9791    0.0000 O.3     1  UNL1       -0.3944
      4 O           6.0010   -4.6160    0.0000 O.3     1  UNL1       -0.4318
      5 O           5.1350   -3.1160    0.0000 O.2     1  UNL1       -0.2501
      6 O          10.2220   -3.3363    0.0000 O.3     1  UNL1       -0.4675
      7 O           9.5940    4.6225    0.0000 O.3     1  UNL1       -0.3461
      8 O          10.2287   -5.0684    0.0000 O.2     1  UNL1       -0.2502
      9 O           7.8852    6.6424    0.0000 O.3     1  UNL1       -0.3841
     10 O           4.2690   -4.6160    0.0000 O.3     1  UNL1       -0.3312
     11 O           9.6286    7.6223    0.0000 O.3     1  UNL1       -0.3864
     12 O          11.3490    6.6023    0.0000 O.3     1  UNL1       -0.3869
     13 O           6.0010   -6.6160    0.0000 O.3     1  UNL1       -0.3829
     14 O           4.2690   -7.6160    0.0000 O.3     1  UNL1       -0.3864
     15 O           2.5369   -6.6160    0.0000 O.3     1  UNL1       -0.3865
     16 O           2.5369   -3.6160    0.0000 O.3     1  UNL1       -0.3924
     17 C           6.9067   -0.0470    0.0000 C.3     1  UNL1       -0.0194
     18 C           7.8006    1.4877    0.0000 C.3     1  UNL1       -0.0225
     19 C           7.7765    0.4463    0.0000 C.3     1  UNL1       -0.0257
     20 C           6.8990   -1.0470    0.0000 C.3     1  UNL1       -0.0051
     21 C           6.9067    2.0223    0.0000 C.3     1  UNL1       -0.0253
     22 C           6.0006    0.4669    0.0000 C.3     1  UNL1       -0.0463
     23 C           6.9067    3.1073    0.0000 C.3     1  UNL1        0.0231
     24 C           6.0006    1.5085    0.0000 C.3     1  UNL1       -0.0485
     25 C           7.7611   -1.5536    0.0000 C.2     1  UNL1       -0.0629
     26 C           8.7565    2.0009    0.0000 C.3     1  UNL1       -0.0184
     27 C           8.6387   -0.0603    0.0000 C.3     1  UNL1       -0.0306
     28 C           7.7691   -2.5952    0.0000 C.3     1  UNL1       -0.0026
     29 C           5.9851   -1.5468    0.0000 C.3     1  UNL1       -0.0424
     30 C           6.8671   -3.1160    0.0000 C.3     1  UNL1        0.0744
     31 C           7.8505    3.6426    0.0000 C.3     1  UNL1        0.0953
     32 C           5.9206   -0.2130    0.0000 C.3     1  UNL1       -0.0585
     33 C           8.7816    3.0856    0.0000 C.3     1  UNL1        0.0825
     34 C           5.9690   -2.5883    0.0000 C.3     1  UNL1       -0.0359
     35 C           8.6588    0.9744    0.0000 C.3     1  UNL1       -0.0589
     36 C           8.6310   -1.0603    0.0000 C.2     1  UNL1       -0.0836
     37 C           5.9155   -0.8657    0.0000 C.3     1  UNL1       -0.0553
     38 C           8.7170   -3.1232    0.0000 C.3     1  UNL1       -0.0299
     39 C           6.8503   -4.2009    0.0000 C.3     1  UNL1       -0.0357
     40 C           6.4100    3.9753    0.0000 C.3     1  UNL1        0.0523
     41 C           5.9067    3.1112    0.0000 C.3     1  UNL1       -0.0547
     42 C           8.7254   -4.2081    0.0000 C.3     1  UNL1        0.0656
     43 C           7.7858   -4.7506    0.0000 C.3     1  UNL1       -0.0365
     44 C           6.0010   -3.6160    0.0000 C.2     1  UNL1        0.3161
     45 C           9.2287   -5.0722    0.0000 C.3     1  UNL1       -0.0494
     46 C           9.7254   -4.2043    0.0000 C.2     1  UNL1        0.3128
     47 C           8.7338    5.1325    0.0000 C.3     1  UNL1        0.1879
     48 C           8.7453    6.1324    0.0000 C.3     1  UNL1        0.1341
     49 C           5.1350   -5.1160    0.0000 C.3     1  UNL1        0.2337
     50 C           9.6171    6.6223    0.0000 C.3     1  UNL1        0.1137
     51 C          10.4657    5.1124    0.0000 C.3     1  UNL1        0.0792
     52 C          10.4773    6.1124    0.0000 C.3     1  UNL1        0.1069
     53 C           5.1350   -6.1160    0.0000 C.3     1  UNL1        0.1455
     54 C          11.2220   -3.3325    0.0000 C.3     1  UNL1        0.0817
     55 C           4.2690   -6.6160    0.0000 C.3     1  UNL1        0.1152
     56 C           3.4030   -5.1160    0.0000 C.3     1  UNL1        0.1140
     57 C           3.4030   -6.1160    0.0000 C.3     1  UNL1        0.1120
     58 C           2.5369   -4.6160    0.0000 C.3     1  UNL1        0.0731
     59 H           8.5191    0.8599    0.0000 H       1  UNL1        0.0315
     60 H           6.1722    2.4502    0.0000 H       1  UNL1        0.0313
     61 H           5.3898    0.5729    0.0000 H       1  UNL1        0.0271
     62 H           5.7916   -0.1168    0.0000 H       1  UNL1        0.0271
     63 H           5.7916    2.0922    0.0000 H       1  UNL1        0.0268
     64 H           5.3898    1.4024    0.0000 H       1  UNL1        0.0268
     65 H           8.9520    1.4126    0.0000 H       1  UNL1        0.0296
     66 H           9.3697    2.0929    0.0000 H       1  UNL1        0.0296
     67 H           9.2484   -0.1727    0.0000 H       1  UNL1        0.0310
     68 H           8.8552    0.5206    0.0000 H       1  UNL1        0.0310
     69 H           8.5003   -2.1617    0.0000 H       1  UNL1        0.0357
     70 H           5.7850   -0.9599    0.0000 H       1  UNL1        0.0274
     71 H           5.3727   -1.6434    0.0000 H       1  UNL1        0.0274
     72 H           7.3165    3.9577    0.0000 H       1  UNL1        0.0629
     73 H           5.8176    0.3984    0.0000 H       1  UNL1        0.0235
     74 H           5.3092   -0.3159    0.0000 H       1  UNL1        0.0235
     75 H           6.0235   -0.8244    0.0000 H       1  UNL1        0.0235
     76 H           8.7924    3.7056    0.0000 H       1  UNL1        0.0619
     77 H           5.3599   -2.4728    0.0000 H       1  UNL1        0.0276
     78 H           5.7510   -3.1687    0.0000 H       1  UNL1        0.0276
     79 H           8.3406    0.4423    0.0000 H       1  UNL1        0.0235
     80 H           9.1909    0.6561    0.0000 H       1  UNL1        0.0235
     81 H           8.9771    1.5065    0.0000 H       1  UNL1        0.0235
     82 H           9.1655   -1.3744    0.0000 H       1  UNL1        0.0572
     83 H           6.0279   -0.2560    0.0000 H       1  UNL1        0.0238
     84 H           5.3058   -0.7534    0.0000 H       1  UNL1        0.0238
     85 H           5.8032   -1.4755    0.0000 H       1  UNL1        0.0238
     86 H           9.3287   -3.2245    0.0000 H       1  UNL1        0.0282
     87 H           8.9216   -2.5379    0.0000 H       1  UNL1        0.0282
     88 H           6.2412   -4.0854    0.0000 H       1  UNL1        0.0276
     89 H           6.6323   -4.7813    0.0000 H       1  UNL1        0.0276
     90 H           6.9934    4.1851    0.0000 H       1  UNL1        0.0563
     91 H           6.3047    4.5863    0.0000 H       1  UNL1        0.0563
     92 H           5.9091    3.7312    0.0000 H       1  UNL1        0.0237
     93 H           5.2867    3.1136    0.0000 H       1  UNL1        0.0237
     94 H           5.9043    2.4912    0.0000 H       1  UNL1        0.0237
     95 H           7.3848   -5.2235    0.0000 H       1  UNL1        0.0276
     96 H           8.1831   -5.2266    0.0000 H       1  UNL1        0.0276
     97 H          10.1880    3.2486    0.0000 H       1  UNL1        0.2099
     98 H           8.6930   -5.3843    0.0000 H       1  UNL1        0.0240
     99 H           9.5408   -5.6080    0.0000 H       1  UNL1        0.0240
    100 H           9.7645   -4.7602    0.0000 H       1  UNL1        0.0240
    101 H           8.2005    5.4486    0.0000 H       1  UNL1        0.0937
    102 H           5.1021    4.5172    0.0000 H       1  UNL1        0.2094
    103 H           8.7525    6.7523    0.0000 H       1  UNL1        0.0671
    104 H           5.1350   -4.4960    0.0000 H       1  UNL1        0.1085
    105 H          10.1576    6.9261    0.0000 H       1  UNL1        0.0647
    106 H          10.6710    4.5274    0.0000 H       1  UNL1        0.0587
    107 H          11.0775    5.2130    0.0000 H       1  UNL1        0.0587
    108 H          11.0106    5.7962    0.0000 H       1  UNL1        0.0643
    109 H           5.1350   -6.7360    0.0000 H       1  UNL1        0.0683
    110 H           7.8923    7.2623    0.0000 H       1  UNL1        0.2101
    111 H          11.2244   -3.9525    0.0000 H       1  UNL1        0.0661
    112 H          11.8420   -3.3301    0.0000 H       1  UNL1        0.0661
    113 H          11.2196   -2.7125    0.0000 H       1  UNL1        0.0661
    114 H           3.7320   -6.9260    0.0000 H       1  UNL1        0.0648
    115 H           3.4030   -4.4960    0.0000 H       1  UNL1        0.0647
    116 H           2.8660   -5.8060    0.0000 H       1  UNL1        0.0647
    117 H          10.1691    7.9260    0.0000 H       1  UNL1        0.2100
    118 H          11.8823    6.2861    0.0000 H       1  UNL1        0.2100
    119 H           6.5380   -6.3060    0.0000 H       1  UNL1        0.2102
    120 H           1.9264   -4.5084    0.0000 H       1  UNL1        0.0584
    121 H           2.3249   -5.1986    0.0000 H       1  UNL1        0.0584
    122 H           3.7320   -7.9260    0.0000 H       1  UNL1        0.2100
    123 H           2.0000   -6.3060    0.0000 H       1  UNL1        0.2100
    124 H           2.0000   -3.3060    0.0000 H       1  UNL1        0.2095
@<TRIPOS>BOND
     1    31     1    1
     2    47     1    1
     3    33     2    1
     4     2    97    1
     5     3    40    1
     6     3   102    1
     7     4    44    1
     8    49     4    1
     9     5    44    2
    10     6    46    1
    11     6    54    1
    12     7    47    1
    13     7    51    1
    14     8    46    2
    15    48     9    1
    16     9   110    1
    17    10    49    1
    18    10    56    1
    19    50    11    1
    20    11   117    1
    21    52    12    1
    22    12   118    1
    23    53    13    1
    24    13   119    1
    25    55    14    1
    26    14   122    1
    27    57    15    1
    28    15   123    1
    29    16    58    1
    30    16   124    1
    31    17    19    1
    32    17    20    1
    33    17    22    1
    34    17    32    1
    35    18    19    1
    36    18    21    1
    37    18    26    1
    38    18    35    1
    39    19    27    1
    40    19    59    1
    41    20    25    1
    42    20    29    1
    43    20    37    1
    44    21    23    1
    45    21    24    1
    46    21    60    1
    47    22    24    1
    48    22    61    1
    49    22    62    1
    50    23    31    1
    51    23    40    1
    52    23    41    1
    53    24    63    1
    54    24    64    1
    55    25    28    1
    56    25    36    2
    57    26    33    1
    58    26    65    1
    59    26    66    1
    60    27    36    1
    61    27    67    1
    62    27    68    1
    63    28    30    1
    64    28    38    1
    65    28    69    1
    66    29    34    1
    67    29    70    1
    68    29    71    1
    69    30    34    1
    70    30    39    1
    71    30    44    1
    72    31    33    1
    73    31    72    1
    74    32    73    1
    75    32    74    1
    76    32    75    1
    77    33    76    1
    78    34    77    1
    79    34    78    1
    80    35    79    1
    81    35    80    1
    82    35    81    1
    83    36    82    1
    84    37    83    1
    85    37    84    1
    86    37    85    1
    87    38    42    1
    88    38    86    1
    89    38    87    1
    90    39    43    1
    91    39    88    1
    92    39    89    1
    93    40    90    1
    94    40    91    1
    95    41    92    1
    96    41    93    1
    97    41    94    1
    98    42    43    1
    99    42    45    1
   100    42    46    1
   101    43    95    1
   102    43    96    1
   103    45    98    1
   104    45    99    1
   105    45   100    1
   106    47    48    1
   107    47   101    1
   108    48    50    1
   109    48   103    1
   110    49    53    1
   111    49   104    1
   112    50    52    1
   113    50   105    1
   114    51    52    1
   115    51   106    1
   116    51   107    1
   117    52   108    1
   118    53    55    1
   119    53   109    1
   120    54   111    1
   121    54   112    1
   122    54   113    1
   123    55    57    1
   124    55   114    1
   125    56    57    1
   126    56    58    1
   127    56   115    1
   128    57   116    1
   129    58   120    1
   130    58   121    1
