@<TRIPOS>MOLECULE
IMPHY001025
 74 78 0 0 0
SMALL
GASTEIGER

@<TRIPOS>ATOM
      1 O           7.7331    0.0725    0.0000 O.3     1  UNL1       -0.3313
      2 O           4.2690   -0.9276    0.0000 O.3     1  UNL1       -0.3405
      3 O           6.0010   -0.9276    0.0000 O.3     1  UNL1       -0.3460
      4 O           6.0010    2.0724    0.0000 O.3     1  UNL1       -0.3865
      5 O           7.7331    3.0724    0.0000 O.3     1  UNL1       -0.3864
      6 O           9.4651    0.0725    0.0000 O.3     1  UNL1       -0.4515
      7 O           6.0010   -2.9276    0.0000 O.3     1  UNL1       -0.3841
      8 O           9.4651    2.0724    0.0000 O.3     1  UNL1       -0.3829
      9 O           4.2690   -3.9276    0.0000 O.3     1  UNL1       -0.3864
     10 O           2.5369   -2.9276    0.0000 O.3     1  UNL1       -0.3865
     11 O           2.5369    0.0725    0.0000 O.3     1  UNL1       -0.3924
     12 O          12.0632    0.5724    0.0000 O.2     1  UNL1       -0.1997
     13 O          10.3094    3.6039    0.0000 O.3     1  UNL1       -0.5057
     14 O          13.8492    3.6176    0.0000 O.3     1  UNL1       -0.5063
     15 O           9.4651   -2.9276    0.0000 O.3     1  UNL1       -0.5033
     16 O          11.1972   -3.9276    0.0000 O.3     1  UNL1       -0.5033
     17 C           6.8671    0.5724    0.0000 C.3     1  UNL1        0.1144
     18 C           6.8671    1.5724    0.0000 C.3     1  UNL1        0.1120
     19 C           7.7331    2.0724    0.0000 C.3     1  UNL1        0.1152
     20 C           5.1350   -2.4276    0.0000 C.3     1  UNL1        0.1341
     21 C           8.5991    1.5724    0.0000 C.3     1  UNL1        0.1454
     22 C           4.2690   -2.9276    0.0000 C.3     1  UNL1        0.1141
     23 C           5.1350   -1.4276    0.0000 C.3     1  UNL1        0.1880
     24 C           3.4030   -2.4276    0.0000 C.3     1  UNL1        0.1119
     25 C           3.4030   -1.4276    0.0000 C.3     1  UNL1        0.1130
     26 C           8.5991    0.5724    0.0000 C.3     1  UNL1        0.2312
     27 C           6.0010    0.0725    0.0000 C.3     1  UNL1        0.0796
     28 C           2.5369   -0.9276    0.0000 C.3     1  UNL1        0.0730
     29 C          10.3312    0.5724    0.0000 C.ar    1  UNL1        0.2288
     30 C          11.1972    0.0725    0.0000 C.ar    1  UNL1        0.4046
     31 C          10.3312    1.5724    0.0000 C.ar    1  UNL1        0.0093
     32 C          11.1972    2.0724    0.0000 C.ar    1  UNL1        0.1241
     33 C          11.1972   -0.9276    0.0000 C.ar    1  UNL1        0.0865
     34 C          12.0632    1.5724    0.0000 C.ar    1  UNL1        0.3708
     35 C          11.1811    3.1140    0.0000 C.ar    1  UNL1        0.1366
     36 C          12.9732    2.0793    0.0000 C.ar    1  UNL1        0.0847
     37 C          10.3312   -1.4276    0.0000 C.ar    1  UNL1       -0.0003
     38 C          12.0632   -1.4276    0.0000 C.ar    1  UNL1       -0.0418
     39 C          12.0792    3.6417    0.0000 C.ar    1  UNL1        0.0225
     40 C          12.9812    3.1209    0.0000 C.ar    1  UNL1        0.1293
     41 C          10.3312   -2.4276    0.0000 C.ar    1  UNL1        0.1591
     42 C          12.0632   -2.4276    0.0000 C.ar    1  UNL1       -0.0157
     43 C          11.1972   -2.9276    0.0000 C.ar    1  UNL1        0.1583
     44 H           6.8671   -0.0475    0.0000 H       1  UNL1        0.0647
     45 H           6.3301    1.2624    0.0000 H       1  UNL1        0.0647
     46 H           7.1962    2.3824    0.0000 H       1  UNL1        0.0648
     47 H           5.1350   -3.0476    0.0000 H       1  UNL1        0.0671
     48 H           8.5991    2.1924    0.0000 H       1  UNL1        0.0683
     49 H           3.7320   -3.2376    0.0000 H       1  UNL1        0.0648
     50 H           5.6720   -1.7376    0.0000 H       1  UNL1        0.0937
     51 H           2.8660   -2.1176    0.0000 H       1  UNL1        0.0647
     52 H           3.4030   -0.8076    0.0000 H       1  UNL1        0.0647
     53 H           8.5991   -0.0475    0.0000 H       1  UNL1        0.1084
     54 H           5.7890    0.6551    0.0000 H       1  UNL1        0.0587
     55 H           5.3905   -0.0352    0.0000 H       1  UNL1        0.0587
     56 H           1.9264   -0.8199    0.0000 H       1  UNL1        0.0584
     57 H           2.3249   -1.5102    0.0000 H       1  UNL1        0.0584
     58 H           5.4641    1.7624    0.0000 H       1  UNL1        0.2100
     59 H           7.1962    3.3824    0.0000 H       1  UNL1        0.2100
     60 H           6.5380   -2.6176    0.0000 H       1  UNL1        0.2101
     61 H           9.4651    2.6924    0.0000 H       1  UNL1        0.2102
     62 H           3.7320   -4.2376    0.0000 H       1  UNL1        0.2100
     63 H           2.0000   -2.6176    0.0000 H       1  UNL1        0.2100
     64 H           2.0000    0.3824    0.0000 H       1  UNL1        0.2095
     65 H           9.7942    1.8824    0.0000 H       1  UNL1        0.0667
     66 H          13.5065    1.7631    0.0000 H       1  UNL1        0.0749
     67 H           9.7942   -1.1176    0.0000 H       1  UNL1        0.0664
     68 H          12.6002   -1.1176    0.0000 H       1  UNL1        0.0628
     69 H          12.0768    4.2617    0.0000 H       1  UNL1        0.0691
     70 H          12.6002   -2.7376    0.0000 H       1  UNL1        0.0655
     71 H          10.3022    4.2239    0.0000 H       1  UNL1        0.2922
     72 H          13.8516    4.2376    0.0000 H       1  UNL1        0.2921
     73 H           9.4651   -3.5476    0.0000 H       1  UNL1        0.2923
     74 H          11.7341   -4.2376    0.0000 H       1  UNL1        0.2923
@<TRIPOS>UNITY_ATOM_ATTR
12 1
charge 1
@<TRIPOS>BOND
     1     1    17    1
     2     1    26    1
     3     2    23    1
     4     2    25    1
     5    23     3    1
     6     3    27    1
     7    18     4    1
     8     4    58    1
     9     5    19    1
    10     5    59    1
    11    26     6    1
    12     6    29    1
    13     7    20    1
    14     7    60    1
    15     8    21    1
    16     8    61    1
    17     9    22    1
    18     9    62    1
    19    24    10    1
    20    10    63    1
    21    11    28    1
    22    11    64    1
    23    12    30   ar
    24    12    34   ar
    25    13    35    1
    26    13    71    1
    27    14    40    1
    28    14    72    1
    29    15    41    1
    30    15    73    1
    31    16    43    1
    32    16    74    1
    33    17    18    1
    34    17    27    1
    35    17    44    1
    36    18    19    1
    37    18    45    1
    38    19    21    1
    39    19    46    1
    40    20    22    1
    41    20    23    1
    42    20    47    1
    43    21    26    1
    44    21    48    1
    45    22    24    1
    46    22    49    1
    47    23    50    1
    48    24    25    1
    49    24    51    1
    50    25    28    1
    51    25    52    1
    52    26    53    1
    53    27    54    1
    54    27    55    1
    55    28    56    1
    56    28    57    1
    57    29    30   ar
    58    29    31   ar
    59    30    33    1
    60    31    32   ar
    61    31    65    1
    62    32    34   ar
    63    32    35   ar
    64    33    37   ar
    65    33    38   ar
    66    34    36   ar
    67    35    39   ar
    68    36    40   ar
    69    36    66    1
    70    37    41   ar
    71    37    67    1
    72    38    42   ar
    73    38    68    1
    74    39    40   ar
    75    39    69    1
    76    41    43   ar
    77    42    43   ar
    78    42    70    1
