@<TRIPOS>MOLECULE
IMPHY007144
 57 61 0 0 0
SMALL
GASTEIGER

@<TRIPOS>ATOM
      1 O          10.9540   -2.2094    0.0000 O.3     1  UNL1       -0.3764
      2 O          12.3536   -0.6550    0.0000 O.3     1  UNL1       -0.3892
      3 O           9.2094   -2.7134    0.0000 O.3     1  UNL1       -0.4804
      4 O           7.9357   -1.5396    0.0000 O.2     1  UNL1       -0.2506
      5 O           2.6726    1.7634    0.0000 O.3     1  UNL1       -0.4950
      6 N           8.6152    1.9766    0.0000 N.3     1  UNL1       -0.2934
      7 N           6.1621    0.8591    0.0000 N.ar    1  UNL1       -0.3564
      8 C           9.2698    0.0135    0.0000 C.3     1  UNL1       -0.0198
      9 C           9.9668    0.7876    0.0000 C.3     1  UNL1       -0.0221
     10 C           8.2526    0.2379    0.0000 C.3     1  UNL1       -0.0279
     11 C           7.9460    1.2334    0.0000 C.3     1  UNL1        0.0512
     12 C           9.5891   -1.0234    0.0000 C.3     1  UNL1        0.0879
     13 C           9.6372    1.7757    0.0000 C.3     1  UNL1        0.0027
     14 C          11.0314    0.5784    0.0000 C.3     1  UNL1       -0.0201
     15 C          10.6486   -1.2572    0.0000 C.3     1  UNL1        0.0972
     16 C          11.3746   -0.4509    0.0000 C.3     1  UNL1        0.0824
     17 C           6.9679    1.4413    0.0000 C.ar    1  UNL1        0.0376
     18 C           8.3061    2.9276    0.0000 C.3     1  UNL1        0.0036
     19 C           6.6589    2.3924    0.0000 C.ar    1  UNL1       -0.0164
     20 C           7.3280    3.1355    0.0000 C.3     1  UNL1       -0.0125
     21 C           8.9114   -1.7588    0.0000 C.2     1  UNL1        0.3107
     22 C           5.6648    2.3898    0.0000 C.ar    1  UNL1        0.0034
     23 C           5.3584    1.4441    0.0000 C.ar    1  UNL1        0.0505
     24 C          11.9313   -2.4211    0.0000 C.3     1  UNL1        0.0369
     25 C           4.9832    3.1693    0.0000 C.ar    1  UNL1       -0.0489
     26 C           4.3492    1.2124    0.0000 C.ar    1  UNL1        0.0040
     27 C           3.9689    2.9609    0.0000 C.ar    1  UNL1       -0.0193
     28 C           3.6498    1.9759    0.0000 C.ar    1  UNL1        0.1221
     29 C           2.0000    2.5033    0.0000 C.3     1  UNL1        0.0788
     30 H           8.6937   -0.6116    0.0000 H       1  UNL1        0.0313
     31 H          10.5282    1.4258    0.0000 H       1  UNL1        0.0317
     32 H           7.6376    0.1595    0.0000 H       1  UNL1        0.0287
     33 H           8.2246   -0.3815    0.0000 H       1  UNL1        0.0287
     34 H           7.3724    0.6061    0.0000 H       1  UNL1        0.0527
     35 H           9.7750   -1.6149    0.0000 H       1  UNL1        0.0443
     36 H          10.2503    1.8683    0.0000 H       1  UNL1        0.0429
     37 H           9.6509    2.3956    0.0000 H       1  UNL1        0.0429
     38 H          11.6444    0.6710    0.0000 H       1  UNL1        0.0294
     39 H          11.0451    1.1982    0.0000 H       1  UNL1        0.0294
     40 H          11.2548   -1.3873    0.0000 H       1  UNL1        0.0630
     41 H          11.7868    0.0122    0.0000 H       1  UNL1        0.0619
     42 H           8.9201    3.0139    0.0000 H       1  UNL1        0.0430
     43 H           8.3278    3.5472    0.0000 H       1  UNL1        0.0430
     44 H           7.5602    3.7104    0.0000 H       1  UNL1        0.0326
     45 H           6.8022    3.4641    0.0000 H       1  UNL1        0.0326
     46 H           6.1611    0.2391    0.0000 H       1  UNL1        0.1656
     47 H          12.7666   -0.1927    0.0000 H       1  UNL1        0.2099
     48 H          11.8001   -3.0271    0.0000 H       1  UNL1        0.0524
     49 H          12.5372   -2.5524    0.0000 H       1  UNL1        0.0524
     50 H          12.0625   -1.8152    0.0000 H       1  UNL1        0.0524
     51 H           5.1811    3.7569    0.0000 H       1  UNL1        0.0625
     52 H           8.7893   -3.1693    0.0000 H       1  UNL1        0.2951
     53 H           4.1650    0.6204    0.0000 H       1  UNL1        0.0675
     54 H           3.5554    3.4229    0.0000 H       1  UNL1        0.0654
     55 H           2.4588    2.9204    0.0000 H       1  UNL1        0.0660
     56 H           1.5830    2.9621    0.0000 H       1  UNL1        0.0660
     57 H           1.5412    2.0863    0.0000 H       1  UNL1        0.0660
@<TRIPOS>BOND
     1    15     1    1
     2     1    24    1
     3    16     2    1
     4     2    47    1
     5     3    21    1
     6     3    52    1
     7     4    21    2
     8     5    28    1
     9     5    29    1
    10     6    11    1
    11     6    13    1
    12     6    18    1
    13     7    17   ar
    14     7    23   ar
    15     7    46    1
    16     8     9    1
    17     8    10    1
    18     8    12    1
    19     8    30    1
    20     9    13    1
    21     9    14    1
    22     9    31    1
    23    10    11    1
    24    10    32    1
    25    10    33    1
    26    11    17    1
    27    11    34    1
    28    12    15    1
    29    12    21    1
    30    12    35    1
    31    13    36    1
    32    13    37    1
    33    14    16    1
    34    14    38    1
    35    14    39    1
    36    15    16    1
    37    15    40    1
    38    16    41    1
    39    17    19   ar
    40    18    20    1
    41    18    42    1
    42    18    43    1
    43    19    20    1
    44    19    22   ar
    45    20    44    1
    46    20    45    1
    47    22    23   ar
    48    22    25   ar
    49    23    26   ar
    50    24    48    1
    51    24    49    1
    52    24    50    1
    53    25    27   ar
    54    25    51    1
    55    26    28   ar
    56    26    53    1
    57    27    28   ar
    58    27    54    1
    59    29    55    1
    60    29    56    1
    61    29    57    1
