@<TRIPOS>MOLECULE
IMPHY000539
 22 24 0 0 0
SMALL
GASTEIGER

@<TRIPOS>ATOM
      1 O           8.6587    7.2135    0.0000 O.3     1  UNL1       -0.4490
      2 O          11.0404    6.0000    0.0000 O.2     1  UNL1       -0.2452
      3 C           3.3350    7.5000    0.0000 C.3     1  UNL1        0.1527
      4 C           2.0360    6.7500    0.0000 C.3     1  UNL1        0.0372
      5 C           4.6341    6.7500    0.0000 C.3     1  UNL1        0.0385
      6 C           7.2321    6.7500    0.0000 C.3     1  UNL1        0.1769
      7 C           5.9331    7.5000    0.0000 C.3     1  UNL1        0.0470
      8 C           7.2321    5.2500    0.0000 C.3     1  UNL1        0.1091
      9 C           4.6341    5.2500    0.0000 C.3     1  UNL1        0.0614
     10 C           2.0360    5.2500    0.0000 C.3     1  UNL1        0.0247
     11 C           8.6587    4.7865    0.0000 C.2     1  UNL1        0.0601
     12 C           9.5404    6.0000    0.0000 C.2     1  UNL1        0.3373
     13 C           5.9331    4.5000    0.0000 C.3     1  UNL1        0.1801
     14 C           3.3350    4.5000    0.0000 C.2     1  UNL1       -0.0409
     15 C           3.3350    3.0000    0.0000 C.2     1  UNL1       -0.0090
     16 O           3.3350    9.0000    0.0000 O.3     1  UNL1       -0.2231
     17 C           4.6341    8.2500    0.0000 C.3     1  UNL1        0.0031
     18 O           5.9331    2.0250    0.0000 O.3     1  UNL1       -0.4515
     19 C           4.6341    1.2750    0.0000 C.2     1  UNL1        0.3175
     20 O           4.6341   -0.2250    0.0000 O.2     1  UNL1       -0.2501
     21 C           3.3350    2.0250    0.0000 C.3     1  UNL1        0.1212
     22 C           9.1223    3.3599    0.0000 C.2     1  UNL1        0.0022
@<TRIPOS>BOND
     1     1    12    1
     2     2    12    2
     3     3     4    1
     4     3     5    1
     5     3    16    1
     6     4    10    1
     7     5     7    1
     8     5     9    1
     9     5    17    1
    10     6     1    1
    11     6     7    1
    12     6     8    1
    13     8    11    1
    14     8    13    1
    15     9    14    1
    16     9    13    1
    17    10    14    1
    18    11    12    1
    19    11    22    2
    20    13    18    1
    21    14    15    2
    22    18    19    1
    23    19    20    2
    24    19    21    1
