@<TRIPOS>MOLECULE
IMPHY016078
 27 26 0 0 0
SMALL
GASTEIGER

@<TRIPOS>ATOM
      1 O           6.3301   -1.0950    0.0000 O.3     1  UNL1       -0.3872
      2 C           6.3301   -0.0950    0.0000 C.3     1  UNL1        0.0792
      3 C           5.4641    0.4050    0.0000 C.3     1  UNL1       -0.0042
      4 C           7.1962    0.4050    0.0000 C.2     1  UNL1       -0.0513
      5 C           4.5981   -0.0950    0.0000 C.2     1  UNL1       -0.0784
      6 C           3.7320    0.4050    0.0000 C.2     1  UNL1       -0.0548
      7 C           8.0622   -0.0950    0.0000 C.3     1  UNL1       -0.0416
      8 C           7.1962    1.4050    0.0000 C.2     1  UNL1       -0.0973
      9 C           3.7320    1.4050    0.0000 C.3     1  UNL1       -0.0400
     10 C           2.8660   -0.0950    0.0000 C.2     1  UNL1       -0.0662
     11 C           2.0000    0.4050    0.0000 C.2     1  UNL1       -0.0985
     12 H           6.8671   -0.4050    0.0000 H       1  UNL1        0.0643
     13 H           5.8626    0.8799    0.0000 H       1  UNL1        0.0336
     14 H           5.0656    0.8799    0.0000 H       1  UNL1        0.0336
     15 H           4.5981   -0.7150    0.0000 H       1  UNL1        0.0576
     16 H           7.7522   -0.6319    0.0000 H       1  UNL1        0.0275
     17 H           8.5991   -0.4050    0.0000 H       1  UNL1        0.0275
     18 H           8.3722    0.4419    0.0000 H       1  UNL1        0.0275
     19 H           5.7932   -1.4050    0.0000 H       1  UNL1        0.2102
     20 H           7.7331    1.7150    0.0000 H       1  UNL1        0.0535
     21 H           6.6592    1.7150    0.0000 H       1  UNL1        0.0535
     22 H           4.3520    1.4050    0.0000 H       1  UNL1        0.0277
     23 H           3.7320    2.0250    0.0000 H       1  UNL1        0.0277
     24 H           3.1120    1.4050    0.0000 H       1  UNL1        0.0277
     25 H           2.8660   -0.7150    0.0000 H       1  UNL1        0.0614
     26 H           2.0000    1.0250    0.0000 H       1  UNL1        0.0535
     27 H           1.4631    0.0950    0.0000 H       1  UNL1        0.0535
@<TRIPOS>BOND
     1     1     2    1
     2     1    19    1
     3     2     3    1
     4     2     4    1
     5     2    12    1
     6     3     5    1
     7     3    13    1
     8     3    14    1
     9     4     7    1
    10     4     8    2
    11     5     6    2
    12     5    15    1
    13     6     9    1
    14     6    10    1
    15     7    16    1
    16     7    17    1
    17     7    18    1
    18     8    20    1
    19     8    21    1
    20     9    22    1
    21     9    23    1
    22     9    24    1
    23    10    11    2
    24    10    25    1
    25    11    26    1
    26    11    27    1
