@<TRIPOS>MOLECULE
IMPHY016629
 47 47 0 0 0
SMALL
GASTEIGER

@<TRIPOS>ATOM
      1 O           2.0000   -2.0000    0.0000 O.2     1  UNL1       -0.2921
      2 C           5.4641    1.0000    0.0000 C.3     1  UNL1       -0.0531
      3 C           5.4641    2.0000    0.0000 C.3     1  UNL1       -0.0531
      4 C           4.5981    0.5000    0.0000 C.3     1  UNL1       -0.0530
      5 C           6.3301    2.5000    0.0000 C.3     1  UNL1       -0.0531
      6 C           4.5981   -0.5000    0.0000 C.3     1  UNL1       -0.0527
      7 C           6.3301    3.5000    0.0000 C.3     1  UNL1       -0.0531
      8 C           3.7320   -1.0000    0.0000 C.3     1  UNL1       -0.0460
      9 C           7.1962    4.0000    0.0000 C.3     1  UNL1       -0.0533
     10 C           3.7320   -2.0000    0.0000 C.3     1  UNL1        0.0105
     11 C           7.1962    5.0000    0.0000 C.3     1  UNL1       -0.0559
     12 C           2.8660   -2.5000    0.0000 C.2     1  UNL1        0.1632
     13 C           8.0622    5.5000    0.0000 C.3     1  UNL1       -0.0653
     14 C           2.8660   -3.5000    0.0000 C.ar    1  UNL1        0.0174
     15 C           2.0000   -4.0000    0.0000 C.ar    1  UNL1       -0.0513
     16 C           3.7320   -4.0000    0.0000 C.ar    1  UNL1       -0.0513
     17 C           2.0000   -5.0000    0.0000 C.ar    1  UNL1       -0.0611
     18 C           3.7320   -5.0000    0.0000 C.ar    1  UNL1       -0.0611
     19 C           2.8660   -5.5000    0.0000 C.ar    1  UNL1       -0.0617
     20 H           5.6762    0.4174    0.0000 H       1  UNL1        0.0265
     21 H           6.0747    1.1077    0.0000 H       1  UNL1        0.0265
     22 H           5.2520    2.5826    0.0000 H       1  UNL1        0.0265
     23 H           4.8535    1.8923    0.0000 H       1  UNL1        0.0265
     24 H           4.3860    1.0826    0.0000 H       1  UNL1        0.0265
     25 H           3.9875    0.3923    0.0000 H       1  UNL1        0.0265
     26 H           6.5422    1.9174    0.0000 H       1  UNL1        0.0265
     27 H           6.9407    2.6077    0.0000 H       1  UNL1        0.0265
     28 H           4.8101   -1.0826    0.0000 H       1  UNL1        0.0265
     29 H           5.2087   -0.3923    0.0000 H       1  UNL1        0.0265
     30 H           6.1181    4.0826    0.0000 H       1  UNL1        0.0265
     31 H           5.7196    3.3923    0.0000 H       1  UNL1        0.0265
     32 H           3.5200   -0.4174    0.0000 H       1  UNL1        0.0269
     33 H           3.1215   -1.1077    0.0000 H       1  UNL1        0.0269
     34 H           7.4082    3.4174    0.0000 H       1  UNL1        0.0265
     35 H           7.8067    4.1077    0.0000 H       1  UNL1        0.0265
     36 H           3.9441   -2.5826    0.0000 H       1  UNL1        0.0345
     37 H           4.3426   -1.8923    0.0000 H       1  UNL1        0.0345
     38 H           6.9841    5.5826    0.0000 H       1  UNL1        0.0263
     39 H           6.5856    4.8923    0.0000 H       1  UNL1        0.0263
     40 H           8.3722    4.9631    0.0000 H       1  UNL1        0.0230
     41 H           8.5991    5.8100    0.0000 H       1  UNL1        0.0230
     42 H           7.7522    6.0369    0.0000 H       1  UNL1        0.0230
     43 H           1.4631   -3.6900    0.0000 H       1  UNL1        0.0624
     44 H           4.2690   -3.6900    0.0000 H       1  UNL1        0.0624
     45 H           1.4631   -5.3100    0.0000 H       1  UNL1        0.0618
     46 H           4.2690   -5.3100    0.0000 H       1  UNL1        0.0618
     47 H           2.8660   -6.1200    0.0000 H       1  UNL1        0.0618
@<TRIPOS>BOND
     1     1    12    2
     2     2     3    1
     3     2     4    1
     4     2    20    1
     5     2    21    1
     6     3     5    1
     7     3    22    1
     8     3    23    1
     9     4     6    1
    10     4    24    1
    11     4    25    1
    12     5     7    1
    13     5    26    1
    14     5    27    1
    15     6     8    1
    16     6    28    1
    17     6    29    1
    18     7     9    1
    19     7    30    1
    20     7    31    1
    21     8    10    1
    22     8    32    1
    23     8    33    1
    24     9    11    1
    25     9    34    1
    26     9    35    1
    27    10    12    1
    28    10    36    1
    29    10    37    1
    30    11    13    1
    31    11    38    1
    32    11    39    1
    33    12    14    1
    34    13    40    1
    35    13    41    1
    36    13    42    1
    37    14    15   ar
    38    14    16   ar
    39    15    17   ar
    40    15    43    1
    41    16    18   ar
    42    16    44    1
    43    17    19   ar
    44    17    45    1
    45    18    19   ar
    46    18    46    1
    47    19    47    1
