@<TRIPOS>MOLECULE
IMPHY001059
 39 41 0 0 0
SMALL
GASTEIGER

@<TRIPOS>ATOM
      1 O           3.5346   -2.4388    0.0000 O.3     1  UNL1       -0.4596
      2 O           2.2745   -1.1788    0.0000 O.2     1  UNL1       -0.2498
      3 C           3.5346    0.6388    0.0000 C.3     1  UNL1       -0.0253
      4 C           4.5346    0.6388    0.0000 C.3     1  UNL1       -0.0340
      5 C           4.0346   -0.9000    0.0000 C.3     1  UNL1        0.0922
      6 C           3.2256   -0.3122    0.0000 C.3     1  UNL1       -0.0274
      7 C           4.8436   -0.3122    0.0000 C.3     1  UNL1       -0.0300
      8 C           2.9999    1.5328    0.0000 C.3     1  UNL1       -0.0382
      9 C           5.0693    1.5328    0.0000 C.3     1  UNL1       -0.0497
     10 C           3.5138    2.4388    0.0000 C.3     1  UNL1       -0.0499
     11 C           4.5554    2.4388    0.0000 C.3     1  UNL1       -0.0525
     12 C           2.5346    0.6388    0.0000 C.3     1  UNL1       -0.0590
     13 C           4.8436   -1.4878    0.0000 C.2     1  UNL1       -0.0229
     14 C           3.2256   -1.4878    0.0000 C.2     1  UNL1        0.3178
     15 C           2.0000    1.5212    0.0000 C.3     1  UNL1       -0.0619
     16 C           4.5346   -2.4388    0.0000 C.3     1  UNL1        0.1144
     17 C           5.7947   -1.1788    0.0000 C.2     1  UNL1       -0.0952
     18 H           5.3792    0.5435    0.0000 H       1  UNL1        0.0307
     19 H           2.6592   -0.0600    0.0000 H       1  UNL1        0.0284
     20 H           2.9156   -0.8492    0.0000 H       1  UNL1        0.0284
     21 H           5.1536   -0.8492    0.0000 H       1  UNL1        0.0282
     22 H           5.4100   -0.0600    0.0000 H       1  UNL1        0.0282
     23 H           2.6848    2.0667    0.0000 H       1  UNL1        0.0303
     24 H           5.5390    1.1282    0.0000 H       1  UNL1        0.0268
     25 H           5.5483    1.9264    0.0000 H       1  UNL1        0.0268
     26 H           3.6199    3.0497    0.0000 H       1  UNL1        0.0268
     27 H           2.9301    2.6479    0.0000 H       1  UNL1        0.0268
     28 H           5.1391    2.6479    0.0000 H       1  UNL1        0.0265
     29 H           4.4493    3.0497    0.0000 H       1  UNL1        0.0265
     30 H           2.5346    1.2588    0.0000 H       1  UNL1        0.0235
     31 H           1.9146    0.6388    0.0000 H       1  UNL1        0.0235
     32 H           2.5346    0.0188    0.0000 H       1  UNL1        0.0235
     33 H           1.9928    2.1412    0.0000 H       1  UNL1        0.0233
     34 H           1.3800    1.5140    0.0000 H       1  UNL1        0.0233
     35 H           2.0072    0.9013    0.0000 H       1  UNL1        0.0233
     36 H           4.4698   -3.0554    0.0000 H       1  UNL1        0.0746
     37 H           5.1410   -2.5678    0.0000 H       1  UNL1        0.0746
     38 H           6.2554   -1.5936    0.0000 H       1  UNL1        0.0536
     39 H           5.9236   -0.5723    0.0000 H       1  UNL1        0.0536
@<TRIPOS>BOND
     1     1    14    1
     2     1    16    1
     3     2    14    2
     4     3     4    1
     5     3     6    1
     6     3     8    1
     7     3    12    1
     8     4     7    1
     9     4     9    1
    10     4    18    1
    11     5     6    1
    12     5     7    1
    13     5    13    1
    14     5    14    1
    15     6    19    1
    16     6    20    1
    17     7    21    1
    18     7    22    1
    19     8    10    1
    20     8    15    1
    21     8    23    1
    22     9    11    1
    23     9    24    1
    24     9    25    1
    25    10    11    1
    26    10    26    1
    27    10    27    1
    28    11    28    1
    29    11    29    1
    30    12    30    1
    31    12    31    1
    32    12    32    1
    33    13    16    1
    34    13    17    2
    35    15    33    1
    36    15    34    1
    37    15    35    1
    38    16    36    1
    39    16    37    1
    40    17    38    1
    41    17    39    1
