@<TRIPOS>MOLECULE
IMPHY000891
 42 43 0 0 0
SMALL
GASTEIGER

@<TRIPOS>ATOM
      1 O           2.5369   -3.3100    0.0000 O.3     1  UNL1       -0.4791
      2 OXT         3.4030   -4.8100    0.0000 O.2     1  UNL1       -0.2486
      3 O           7.7331   -3.3100    0.0000 O.3     1  UNL1       -0.4761
      4 O          10.3312    4.1900    0.0000 O.3     1  UNL1       -0.5068
      5 OXT         6.8671   -4.8100    0.0000 O.2     1  UNL1       -0.2434
      6 N           5.1350   -3.8100    0.0000 N.2     1  UNL1       -0.2620
      7 N           6.0010    0.6900    0.0000 N.pl3   1  UNL1       -0.3493
      8 C           4.2690   -2.3100    0.0000 C.3     1  UNL1        0.0053
      9 CA          4.2690   -3.3100    0.0000 C.3     1  UNL1        0.1519
     10 C           5.1350   -1.8100    0.0000 C.2     1  UNL1       -0.0414
     11 C           6.8671    2.1900    0.0000 C.3     1  UNL1       -0.0122
     12 C           6.0010   -2.3100    0.0000 C.2     1  UNL1       -0.0264
     13 C           6.8671    1.1900    0.0000 C.3     1  UNL1        0.0126
     14 C           5.1350   -0.8100    0.0000 C.2     1  UNL1       -0.0449
     15 CA          6.0010   -3.3100    0.0000 C.2     1  UNL1        0.1433
     16 C           7.7331    2.6900    0.0000 C.ar    1  UNL1       -0.0457
     17 C           3.4030   -3.8100    0.0000 C.2     1  UNL1        0.3298
     18 C           6.0010   -0.3100    0.0000 C.2     1  UNL1       -0.0103
     19 C           8.5991    2.1900    0.0000 C.ar    1  UNL1       -0.0551
     20 C           7.7331    3.6900    0.0000 C.ar    1  UNL1       -0.0551
     21 C           6.8671   -3.8100    0.0000 C.2     1  UNL1        0.3549
     22 C           9.4651    2.6900    0.0000 C.ar    1  UNL1       -0.0199
     23 C           8.5991    4.1900    0.0000 C.ar    1  UNL1       -0.0199
     24 C           9.4651    3.6900    0.0000 C.ar    1  UNL1        0.1169
     25 H           4.0569   -1.7274    0.0000 H       1  UNL1        0.0339
     26 H           3.6584   -2.4177    0.0000 H       1  UNL1        0.0339
     27 HA          4.2690   -4.1600    0.0000 H       1  UNL1        0.0664
     28 H           6.6550    2.7726    0.0000 H       1  UNL1        0.0328
     29 H           6.2565    2.0823    0.0000 H       1  UNL1        0.0328
     30 H           6.5380   -2.0000    0.0000 H       1  UNL1        0.0644
     31 H           7.0791    0.6074    0.0000 H       1  UNL1        0.0464
     32 H           7.4776    1.2977    0.0000 H       1  UNL1        0.0464
     33 H           4.5981   -0.5000    0.0000 H       1  UNL1        0.0633
     34 H           5.4641    1.0000    0.0000 H       1  UNL1        0.1455
     35 H           6.5380   -0.6200    0.0000 H       1  UNL1        0.0778
     36 H           8.5991    1.5700    0.0000 H       1  UNL1        0.0621
     37 H           7.1962    4.0000    0.0000 H       1  UNL1        0.0621
     38 H          10.0021    2.3800    0.0000 H       1  UNL1        0.0654
     39 H           8.5991    4.8100    0.0000 H       1  UNL1        0.0654
     40 H           2.0000   -3.6200    0.0000 H       1  UNL1        0.2951
     41 H           8.2700   -3.6200    0.0000 H       1  UNL1        0.2955
     42 H          10.3312    4.8100    0.0000 H       1  UNL1        0.2921
@<TRIPOS>BOND
     1     1    17    1
     2     1    40    1
     3     2    17    2
     4     3    21    1
     5     3    41    1
     6     4    24    1
     7     4    42    1
     8     5    21    2
     9     6     9    1
    10     6    15    2
    11     7    13    1
    12     7    18    1
    13     7    34    1
    14     8     9    1
    15     8    10    1
    16     8    25    1
    17     8    26    1
    18     9    17    1
    19     9    27    1
    20    10    12    2
    21    10    14    1
    22    11    13    1
    23    11    16    1
    24    11    28    1
    25    11    29    1
    26    12    15    1
    27    12    30    1
    28    13    31    1
    29    13    32    1
    30    14    18    2
    31    14    33    1
    32    15    21    1
    33    16    19   ar
    34    16    20   ar
    35    18    35    1
    36    19    22   ar
    37    19    36    1
    38    20    23   ar
    39    20    37    1
    40    22    24   ar
    41    22    38    1
    42    23    24   ar
    43    23    39    1
