@<TRIPOS>MOLECULE
IMPHY007188
 17 17 0 0 0
SMALL
GASTEIGER

@<TRIPOS>ATOM
      1 N           2.8660   -0.6900    0.0000 N.3     1  UNL1       -0.3160
      2 C           2.8660    1.3100    0.0000 C.3     1  UNL1       -0.0508
      3 C           2.0000    0.8100    0.0000 C.3     1  UNL1       -0.0404
      4 C           3.7320    0.8100    0.0000 C.3     1  UNL1       -0.0404
      5 C           2.0000   -0.1900    0.0000 C.3     1  UNL1       -0.0041
      6 C           3.7320   -0.1900    0.0000 C.3     1  UNL1       -0.0041
      7 H           3.2646    1.7850    0.0000 H       1  UNL1        0.0266
      8 H           2.4675    1.7850    0.0000 H       1  UNL1        0.0266
      9 H           1.7880    1.3926    0.0000 H       1  UNL1        0.0277
     10 H           1.3894    0.7023    0.0000 H       1  UNL1        0.0277
     11 H           4.3426    0.7023    0.0000 H       1  UNL1        0.0277
     12 H           3.9441    1.3926    0.0000 H       1  UNL1        0.0277
     13 H           1.3894   -0.0823    0.0000 H       1  UNL1        0.0424
     14 H           3.9441   -0.7726    0.0000 H       1  UNL1        0.0424
     15 H           4.3426   -0.0823    0.0000 H       1  UNL1        0.0424
     16 H           1.7880   -0.7726    0.0000 H       1  UNL1        0.0424
     17 H           2.8660   -1.3100    0.0000 H       1  UNL1        0.1219
@<TRIPOS>BOND
     1     1     5    1
     2     1     6    1
     3     1    17    1
     4     2     3    1
     5     2     4    1
     6     2     7    1
     7     2     8    1
     8     3     5    1
     9     3     9    1
    10     3    10    1
    11     4     6    1
    12     4    11    1
    13     4    12    1
    14     5    13    1
    15     5    16    1
    16     6    14    1
    17     6    15    1
