@<TRIPOS>MOLECULE
IMPHY006511
 50 52 0 0 0
SMALL
GASTEIGER

@<TRIPOS>ATOM
      1 O           4.4217    2.4404    0.0000 O.3     1  UNL1       -0.4541
      2 O           5.3989    0.7465    0.0000 O.3     1  UNL1       -0.3862
      3 O           3.6605   -2.6884    0.0000 O.3     1  UNL1       -0.4582
      4 O           3.5069   -0.7115    0.0000 O.3     1  UNL1       -0.3774
      5 O           6.4019    2.6884    0.0000 O.2     1  UNL1       -0.2453
      6 O           5.3065   -2.4514    0.0000 O.2     1  UNL1       -0.2476
      7 N           2.8027    0.5386    0.0000 N.3     1  UNL1       -0.2859
      8 C           3.6117   -0.0492    0.0000 C.3     1  UNL1        0.0647
      9 C           4.4207    0.5386    0.0000 C.3     1  UNL1        0.1126
     10 C           4.1117    1.4896    0.0000 C.3     1  UNL1        0.1435
     11 C           3.1117    1.4896    0.0000 C.3     1  UNL1        0.0396
     12 C           3.3021   -0.9938    0.0000 C.2     1  UNL1       -0.0157
     13 C           2.0000   -0.0478    0.0000 C.3     1  UNL1        0.0183
     14 C           2.3080   -0.9930    0.0000 C.2     1  UNL1       -0.0660
     15 C           2.9921   -1.9446    0.0000 C.3     1  UNL1        0.1152
     16 C           5.3491   -0.5683    0.0000 C.3     1  UNL1       -0.0006
     17 C           4.4576   -1.0214    0.0000 C.3     1  UNL1        0.1620
     18 C           5.6591    0.3824    0.0000 C.3     1  UNL1       -0.0155
     19 C           5.5159    2.2246    0.0000 C.2     1  UNL1        0.3352
     20 C           5.2059    1.2739    0.0000 C.2     1  UNL1        0.0328
     21 C           4.4043   -2.0200    0.0000 C.2     1  UNL1        0.3394
     22 C           6.3461   -0.4908    0.0000 C.3     1  UNL1       -0.0590
     23 C           4.7676   -0.0707    0.0000 C.3     1  UNL1       -0.0253
     24 C           4.2090    1.1964    0.0000 C.2     1  UNL1       -0.0771
     25 C           3.4951    0.4962    0.0000 C.3     1  UNL1       -0.0461
     26 H           4.2987   -0.5497    0.0000 H       1  UNL1        0.0537
     27 H           4.6729   -0.0278    0.0000 H       1  UNL1        0.0650
     28 H           3.6124    2.1775    0.0000 H       1  UNL1        0.0774
     29 H           3.1765    2.1062    0.0000 H       1  UNL1        0.0464
     30 H           2.5053    1.6185    0.0000 H       1  UNL1        0.0464
     31 H           1.6889    0.4885    0.0000 H       1  UNL1        0.0470
     32 H           1.4340   -0.3008    0.0000 H       1  UNL1        0.0470
     33 H           1.9436   -1.4946    0.0000 H       1  UNL1        0.0586
     34 H           2.4450   -1.6530    0.0000 H       1  UNL1        0.0746
     35 H           2.6099   -2.4328    0.0000 H       1  UNL1        0.0746
     36 H           5.8596    1.1613    0.0000 H       1  UNL1        0.2100
     37 H           5.6998   -1.0796    0.0000 H       1  UNL1        0.0334
     38 H           6.1787    0.0442    0.0000 H       1  UNL1        0.0319
     39 H           6.1202    0.7968    0.0000 H       1  UNL1        0.0319
     40 H           6.3941   -1.1090    0.0000 H       1  UNL1        0.0234
     41 H           6.9642   -0.4428    0.0000 H       1  UNL1        0.0234
     42 H           6.2981    0.1273    0.0000 H       1  UNL1        0.0234
     43 H           5.3571   -0.2628    0.0000 H       1  UNL1        0.0263
     44 H           4.9598    0.5188    0.0000 H       1  UNL1        0.0263
     45 H           4.1781    0.1215    0.0000 H       1  UNL1        0.0263
     46 H           3.0187   -0.3293    0.0000 H       1  UNL1        0.2109
     47 H           3.5908    1.1484    0.0000 H       1  UNL1        0.0574
     48 H           3.0609    0.9388    0.0000 H       1  UNL1        0.0272
     49 H           3.0524    0.0620    0.0000 H       1  UNL1        0.0272
     50 H           3.9292    0.0535    0.0000 H       1  UNL1        0.0272
@<TRIPOS>BOND
     1     1    10    1
     2     1    19    1
     3     9     2    1
     4     2    36    1
     5     3    15    1
     6     3    21    1
     7    17     4    1
     8     4    46    1
     9     5    19    2
    10     6    21    2
    11     7     8    1
    12     7    11    1
    13     7    13    1
    14     8     9    1
    15     8    12    1
    16     8    26    1
    17     9    10    1
    18     9    27    1
    19    10    11    1
    20    10    28    1
    21    11    29    1
    22    11    30    1
    23    12    14    2
    24    12    15    1
    25    13    14    1
    26    13    31    1
    27    13    32    1
    28    14    33    1
    29    15    34    1
    30    15    35    1
    31    16    17    1
    32    16    18    1
    33    16    22    1
    34    16    37    1
    35    17    21    1
    36    17    23    1
    37    18    20    1
    38    18    38    1
    39    18    39    1
    40    19    20    1
    41    20    24    2
    42    22    40    1
    43    22    41    1
    44    22    42    1
    45    23    43    1
    46    23    44    1
    47    23    45    1
    48    24    25    1
    49    24    47    1
    50    25    48    1
    51    25    49    1
    52    25    50    1
