@<TRIPOS>MOLECULE
IMPHY006287
 27 28 0 0 0
SMALL
GASTEIGER

@<TRIPOS>ATOM
      1 O           5.5321   -0.3100    0.0000 O.2     1  UNL1       -0.4223
      2 O           4.6660   -1.8100    0.0000 O.2     1  UNL1       -0.2445
      3 C           3.8000    0.6900    0.0000 C.ar    1  UNL1       -0.0076
      4 C           3.8000   -0.3100    0.0000 C.ar    1  UNL1        0.0666
      5 C           4.6660    1.1900    0.0000 C.ar    1  UNL1       -0.0113
      6 C           5.5321    0.6900    0.0000 C.ar    1  UNL1        0.1322
      7 C           2.9061    1.2247    0.0000 C.ar    1  UNL1       -0.0537
      8 C           2.9061   -0.8447    0.0000 C.ar    1  UNL1       -0.0472
      9 C           4.6660   -0.8100    0.0000 C.ar    1  UNL1        0.3450
     10 C           6.3981    1.1900    0.0000 C.2     1  UNL1       -0.0231
     11 C           8.1301    1.1900    0.0000 C.3     1  UNL1       -0.0372
     12 C           2.0000    0.7108    0.0000 C.ar    1  UNL1       -0.0612
     13 C           7.2641    0.6900    0.0000 C.2     1  UNL1       -0.0808
     14 C           2.0000   -0.3308    0.0000 C.ar    1  UNL1       -0.0609
     15 C           8.9962    0.6900    0.0000 C.3     1  UNL1       -0.0618
     16 H           4.6660    1.8100    0.0000 H       1  UNL1        0.0660
     17 H           2.9132    1.8446    0.0000 H       1  UNL1        0.0624
     18 H           2.9132   -1.4646    0.0000 H       1  UNL1        0.0626
     19 H           6.3981    1.8100    0.0000 H       1  UNL1        0.0651
     20 H           8.5287    1.6650    0.0000 H       1  UNL1        0.0305
     21 H           7.7316    1.6650    0.0000 H       1  UNL1        0.0305
     22 H           7.2641    0.0700    0.0000 H       1  UNL1        0.0573
     23 H           1.4643    1.0229    0.0000 H       1  UNL1        0.0618
     24 H           1.4643   -0.6429    0.0000 H       1  UNL1        0.0618
     25 H           8.6862    0.1531    0.0000 H       1  UNL1        0.0233
     26 H           9.5331    0.3800    0.0000 H       1  UNL1        0.0233
     27 H           9.3062    1.2269    0.0000 H       1  UNL1        0.0233
@<TRIPOS>BOND
     1     1     6   ar
     2     1     9   ar
     3     2     9    2
     4     3     4   ar
     5     3     5   ar
     6     3     7   ar
     7     4     8   ar
     8     4     9   ar
     9     5     6   ar
    10     5    16    1
    11     6    10    1
    12     7    12   ar
    13     7    17    1
    14     8    14   ar
    15     8    18    1
    16    10    13    2
    17    10    19    1
    18    11    13    1
    19    11    15    1
    20    11    20    1
    21    11    21    1
    22    12    14   ar
    23    12    23    1
    24    13    22    1
    25    14    24    1
    26    15    25    1
    27    15    26    1
    28    15    27    1
