@<TRIPOS>MOLECULE
IMPHY013337
 31 32 0 0 0
SMALL
GASTEIGER

@<TRIPOS>ATOM
      1 O           5.5321   -0.6550    0.0000 O.2     1  UNL1       -0.4240
      2 O           8.1301    0.8450    0.0000 O.3     1  UNL1       -0.3888
      3 O           6.3981    1.8450    0.0000 O.3     1  UNL1       -0.3815
      4 O           4.6660   -2.1550    0.0000 O.2     1  UNL1       -0.2445
      5 C           7.2641    0.3450    0.0000 C.3     1  UNL1        0.0879
      6 C           6.3981    0.8450    0.0000 C.3     1  UNL1        0.1384
      7 C           7.2641   -0.6550    0.0000 C.3     1  UNL1       -0.0268
      8 C           5.5321    0.3450    0.0000 C.ar    1  UNL1        0.1405
      9 C           4.6660    0.8450    0.0000 C.ar    1  UNL1       -0.0128
     10 C           3.8000    0.3450    0.0000 C.ar    1  UNL1       -0.0078
     11 C           3.8000   -0.6550    0.0000 C.ar    1  UNL1        0.0666
     12 C           8.1301   -1.1550    0.0000 C.3     1  UNL1       -0.0628
     13 C           4.6660   -1.1550    0.0000 C.ar    1  UNL1        0.3448
     14 C           2.9061    0.8797    0.0000 C.ar    1  UNL1       -0.0537
     15 C           2.9061   -1.1897    0.0000 C.ar    1  UNL1       -0.0472
     16 C           2.0000    0.3658    0.0000 C.ar    1  UNL1       -0.0612
     17 C           2.0000   -0.6758    0.0000 C.ar    1  UNL1       -0.0609
     18 H           7.8010    0.0350    0.0000 H       1  UNL1        0.0623
     19 H           6.9350    1.1550    0.0000 H       1  UNL1        0.0701
     20 H           6.6535   -0.5473    0.0000 H       1  UNL1        0.0288
     21 H           7.0521   -1.2376    0.0000 H       1  UNL1        0.0288
     22 H           4.6660    1.4650    0.0000 H       1  UNL1        0.0658
     23 H           7.8201   -1.6919    0.0000 H       1  UNL1        0.0231
     24 H           8.6671   -1.4650    0.0000 H       1  UNL1        0.0231
     25 H           8.4401   -0.6181    0.0000 H       1  UNL1        0.0231
     26 H           8.6671    0.5350    0.0000 H       1  UNL1        0.2099
     27 H           6.9350    2.1550    0.0000 H       1  UNL1        0.2105
     28 H           2.9132    1.4996    0.0000 H       1  UNL1        0.0624
     29 H           2.9132   -1.8096    0.0000 H       1  UNL1        0.0626
     30 H           1.4643    0.6779    0.0000 H       1  UNL1        0.0618
     31 H           1.4643   -0.9879    0.0000 H       1  UNL1        0.0618
@<TRIPOS>BOND
     1     1     8   ar
     2     1    13   ar
     3     2     5    1
     4     2    26    1
     5     3     6    1
     6     3    27    1
     7     4    13    2
     8     5     6    1
     9     5     7    1
    10     5    18    1
    11     6     8    1
    12     6    19    1
    13     7    12    1
    14     7    20    1
    15     7    21    1
    16     8     9   ar
    17     9    10   ar
    18     9    22    1
    19    10    11   ar
    20    10    14   ar
    21    11    13   ar
    22    11    15   ar
    23    12    23    1
    24    12    24    1
    25    12    25    1
    26    14    16   ar
    27    14    28    1
    28    15    17   ar
    29    15    29    1
    30    16    17   ar
    31    16    30    1
    32    17    31    1
