@<TRIPOS>MOLECULE
IMPHY017220
 15 15 0 0 0
SMALL
GASTEIGER

@<TRIPOS>ATOM
      1 O           2.0000    0.3135    0.0000 O.3     1  UNL1       -0.3517
      2 O           4.2470    0.3135    0.0000 O.3     1  UNL1       -0.3517
      3 O           3.1235   -1.0953    0.0000 O.3     1  UNL1       -0.3283
      4 C           2.6235    1.0953    0.0000 C.3     1  UNL1        0.0738
      5 C           3.6235    1.0953    0.0000 C.3     1  UNL1        0.0738
      6 C           2.2225   -0.6614    0.0000 C.3     1  UNL1        0.1509
      7 C           4.0245   -0.6614    0.0000 C.3     1  UNL1        0.1509
      8 H           2.7614    1.6998    0.0000 H       1  UNL1        0.0584
      9 H           2.0649    1.3643    0.0000 H       1  UNL1        0.0584
     10 H           4.1821    1.3643    0.0000 H       1  UNL1        0.0584
     11 H           3.4855    1.6998    0.0000 H       1  UNL1        0.0584
     12 H           1.6025   -0.6614    0.0000 H       1  UNL1        0.0872
     13 H           2.0846   -1.2659    0.0000 H       1  UNL1        0.0872
     14 H           4.1624   -1.2659    0.0000 H       1  UNL1        0.0872
     15 H           4.6445   -0.6614    0.0000 H       1  UNL1        0.0872
@<TRIPOS>BOND
     1     1     4    1
     2     1     6    1
     3     2     5    1
     4     2     7    1
     5     3     6    1
     6     3     7    1
     7     4     5    1
     8     4     8    1
     9     4     9    1
    10     5    10    1
    11     5    11    1
    12     6    12    1
    13     6    13    1
    14     7    14    1
    15     7    15    1
