@<TRIPOS>MOLECULE
IMPHY012317
 52 56 0 0 0
SMALL
GASTEIGER

@<TRIPOS>ATOM
      1 O           2.9180    0.8177    0.0000 O.3     1  UNL1       -0.4803
      2 O           2.0000   -1.7308    0.0000 O.3     1  UNL1       -0.4877
      3 O           4.7689   -0.8560    0.0000 O.3     1  UNL1       -0.3728
      4 O           4.6744    3.9719    0.0000 O.3     1  UNL1       -0.4815
      5 O           5.5161   -0.6823    0.0000 O.2     1  UNL1       -0.2883
      6 O           5.6405   -3.8193    0.0000 O.3     1  UNL1       -0.4914
      7 O           3.8372   -4.8790    0.0000 O.3     1  UNL1       -0.4913
      8 C           3.7841   -0.6823    0.0000 C.3     1  UNL1        0.1968
      9 C           2.9180   -0.1823    0.0000 C.3     1  UNL1        0.1739
     10 C           3.8001   -1.7238    0.0000 C.ar    1  UNL1        0.0405
     11 C           2.0080   -0.6892    0.0000 C.3     1  UNL1        0.1299
     12 C           4.6501   -0.1823    0.0000 C.2     1  UNL1        0.2063
     13 C           4.6501    0.8177    0.0000 C.ar    1  UNL1        0.0633
     14 C           3.7841    1.3177    0.0000 C.ar    1  UNL1        0.1424
     15 C           2.9021   -2.2516    0.0000 C.ar    1  UNL1        0.1308
     16 C           3.7680    2.3592    0.0000 C.ar    1  UNL1        0.0589
     17 C           4.7520   -2.2444    0.0000 C.ar    1  UNL1       -0.0064
     18 C           4.6660    2.8870    0.0000 C.ar    1  UNL1        0.1324
     19 C           3.7348    4.5144    0.0000 C.3     1  UNL1        0.1235
     20 C           5.5601    1.3245    0.0000 C.ar    1  UNL1       -0.0441
     21 C           2.8937   -3.3365    0.0000 C.ar    1  UNL1        0.0258
     22 C           5.5681    2.3661    0.0000 C.ar    1  UNL1       -0.0184
     23 C           2.8161    2.8798    0.0000 C.2     1  UNL1       -0.0478
     24 C           4.7688   -3.3293    0.0000 C.ar    1  UNL1        0.1621
     25 C           2.7993    3.9647    0.0000 C.2     1  UNL1       -0.0408
     26 C           3.8334   -3.8790    0.0000 C.ar    1  UNL1        0.1650
     27 C           3.2314    5.3785    0.0000 C.3     1  UNL1       -0.0215
     28 C           4.2314    5.3824    0.0000 C.3     1  UNL1       -0.0215
     29 C           5.6521   -4.8192    0.0000 C.3     1  UNL1        0.0790
     30 C           2.9731   -5.3824    0.0000 C.3     1  UNL1        0.0790
     31 H           2.1852    0.2484    0.0000 H       1  UNL1        0.0805
     32 H           1.8035   -0.1039    0.0000 H       1  UNL1        0.0735
     33 H           1.3964   -0.7905    0.0000 H       1  UNL1        0.0735
     34 H           5.2829   -1.9242    0.0000 H       1  UNL1        0.0660
     35 H           4.9809   -1.4386    0.0000 H       1  UNL1        0.2114
     36 H           6.0934    1.0084    0.0000 H       1  UNL1        0.0627
     37 H           2.3556   -3.6445    0.0000 H       1  UNL1        0.0692
     38 H           6.1062    2.6741    0.0000 H       1  UNL1        0.0654
     39 H           2.2852    2.5595    0.0000 H       1  UNL1        0.0624
     40 H           2.2589    4.2685    0.0000 H       1  UNL1        0.0611
     41 H           3.7672    5.6906    0.0000 H       1  UNL1        0.0271
     42 H           2.9194    5.9142    0.0000 H       1  UNL1        0.0271
     43 H           2.6957    5.0664    0.0000 H       1  UNL1        0.0271
     44 H           4.7696    5.0744    0.0000 H       1  UNL1        0.0271
     45 H           4.5394    5.9205    0.0000 H       1  UNL1        0.0271
     46 H           3.6933    5.6903    0.0000 H       1  UNL1        0.0271
     47 H           5.0321   -4.8264    0.0000 H       1  UNL1        0.0660
     48 H           5.6592   -5.4392    0.0000 H       1  UNL1        0.0660
     49 H           6.2720   -4.8120    0.0000 H       1  UNL1        0.0660
     50 H           2.6610   -4.8466    0.0000 H       1  UNL1        0.0660
     51 H           2.4374   -5.6944    0.0000 H       1  UNL1        0.0660
     52 H           3.2852   -5.9181    0.0000 H       1  UNL1        0.0660
@<TRIPOS>BOND
     1     1     9    1
     2     1    14    1
     3     2    11    1
     4     2    15    1
     5     8     3    1
     6     3    35    1
     7     4    18    1
     8     4    19    1
     9     5    12    2
    10     6    24    1
    11     6    29    1
    12     7    26    1
    13     7    30    1
    14     8     9    1
    15     8    10    1
    16     8    12    1
    17     9    11    1
    18     9    31    1
    19    10    15   ar
    20    10    17   ar
    21    11    32    1
    22    11    33    1
    23    12    13    1
    24    13    14   ar
    25    13    20   ar
    26    14    16   ar
    27    15    21   ar
    28    16    18   ar
    29    16    23    1
    30    17    24   ar
    31    17    34    1
    32    18    22   ar
    33    19    25    1
    34    19    27    1
    35    19    28    1
    36    20    22   ar
    37    20    36    1
    38    21    26   ar
    39    21    37    1
    40    22    38    1
    41    23    25    2
    42    23    39    1
    43    24    26   ar
    44    25    40    1
    45    27    41    1
    46    27    42    1
    47    27    43    1
    48    28    44    1
    49    28    45    1
    50    28    46    1
    51    29    47    1
    52    29    48    1
    53    29    49    1
    54    30    50    1
    55    30    51    1
    56    30    52    1
