@<TRIPOS>MOLECULE
IMPHY002927
 17 17 0 0 0
SMALL
GASTEIGER

@<TRIPOS>ATOM
      1 S           3.7601   -1.6307    0.0000 S.2     1  UNL1       -0.0980
      2 O           4.4411    1.6307    0.0000 O.2     1  UNL1       -0.2957
      3 C           4.5691   -1.0429    0.0000 C.ar    1  UNL1       -0.0029
      4 C           4.2601   -0.0919    0.0000 C.ar    1  UNL1        0.0243
      5 C           2.9511   -1.0429    0.0000 C.ar    1  UNL1       -0.0124
      6 C           3.2601   -0.0919    0.0000 C.ar    1  UNL1       -0.0413
      7 C           5.5202   -1.3519    0.0000 C.3     1  UNL1       -0.0328
      8 C           2.0000   -1.3519    0.0000 C.3     1  UNL1       -0.0334
      9 C           4.8479    0.7172    0.0000 C.2     1  UNL1        0.1510
     10 H           2.8956    0.4097    0.0000 H       1  UNL1        0.0632
     11 H           5.3286   -1.9416    0.0000 H       1  UNL1        0.0283
     12 H           6.1098   -1.5435    0.0000 H       1  UNL1        0.0283
     13 H           5.7117   -0.7623    0.0000 H       1  UNL1        0.0283
     14 H           1.8084   -0.7623    0.0000 H       1  UNL1        0.0283
     15 H           1.4103   -1.5435    0.0000 H       1  UNL1        0.0283
     16 H           2.1916   -1.9416    0.0000 H       1  UNL1        0.0283
     17 H           5.4645    0.6523    0.0000 H       1  UNL1        0.1082
@<TRIPOS>BOND
     1     1     3   ar
     2     1     5   ar
     3     2     9    2
     4     3     4   ar
     5     3     7    1
     6     4     6   ar
     7     4     9    1
     8     5     6   ar
     9     5     8    1
    10     6    10    1
    11     7    11    1
    12     7    12    1
    13     7    13    1
    14     8    14    1
    15     8    15    1
    16     8    16    1
    17     9    17    1
