@<TRIPOS>MOLECULE
IMPHY011120
 65 67 0 0 0
SMALL
GASTEIGER

@<TRIPOS>ATOM
      1 O           5.1478   -1.1373    0.0000 O.3     1  UNL1       -0.4573
      2 O           4.2818    1.3627    0.0000 O.3     1  UNL1       -0.4581
      3 O           7.8458   -1.3961    0.0000 O.3     1  UNL1       -0.3748
      4 O           7.7459    1.3627    0.0000 O.3     1  UNL1       -0.4563
      5 O           6.7210    0.6556    0.0000 O.3     1  UNL1       -0.3745
      6 O           6.0139   -2.6373    0.0000 O.2     1  UNL1       -0.2474
      7 O           5.8951   -0.3109    0.0000 O.3     1  UNL1       -0.3777
      8 O           5.1478    2.8627    0.0000 O.2     1  UNL1       -0.2474
      9 O           8.6119   -0.1373    0.0000 O.2     1  UNL1       -0.2478
     10 N           2.6788   -1.8044    0.0000 N.3     1  UNL1       -0.2886
     11 C           3.4158   -1.1373    0.0000 C.3     1  UNL1        0.0723
     12 C           4.2818   -1.6373    0.0000 C.3     1  UNL1        0.1236
     13 C           4.0726   -2.6091    0.0000 C.3     1  UNL1       -0.0010
     14 C           3.0839   -2.7121    0.0000 C.3     1  UNL1        0.0033
     15 C           3.4158   -0.1373    0.0000 C.2     1  UNL1       -0.0148
     16 C           2.0000   -1.0590    0.0000 C.3     1  UNL1        0.0182
     17 C           2.4076   -0.1369    0.0000 C.2     1  UNL1       -0.0660
     18 C           4.2818    0.3627    0.0000 C.3     1  UNL1        0.1153
     19 C           6.8799   -1.1373    0.0000 C.3     1  UNL1        0.2009
     20 C           6.0139   -1.6373    0.0000 C.2     1  UNL1        0.3429
     21 C           6.0139    1.3627    0.0000 C.3     1  UNL1        0.2012
     22 C           7.3025   -2.0436    0.0000 C.3     1  UNL1       -0.0042
     23 C           6.8799   -0.1373    0.0000 C.3     1  UNL1        0.1912
     24 C           6.8799    1.8627    0.0000 C.3     1  UNL1        0.1396
     25 C           5.7550    0.3968    0.0000 C.3     1  UNL1       -0.0037
     26 C           5.1478    1.8627    0.0000 C.2     1  UNL1        0.3435
     27 C           7.7459    0.3627    0.0000 C.2     1  UNL1        0.3399
     28 C           6.7289   -2.8627    0.0000 C.3     1  UNL1       -0.0594
     29 C           8.2987   -2.1307    0.0000 C.3     1  UNL1       -0.0594
     30 C           6.8799    2.8627    0.0000 C.3     1  UNL1       -0.0244
     31 C           4.8487   -0.0258    0.0000 C.3     1  UNL1       -0.0594
     32 C           6.5682   -0.4164    0.0000 C.3     1  UNL1       -0.0594
     33 H           3.4158   -1.9873    0.0000 H       1  UNL1        0.0547
     34 H           4.9688   -2.1378    0.0000 H       1  UNL1        0.0753
     35 H           4.0717   -3.2291    0.0000 H       1  UNL1        0.0314
     36 H           4.6891   -2.6751    0.0000 H       1  UNL1        0.0314
     37 H           2.4943   -2.9039    0.0000 H       1  UNL1        0.0428
     38 H           3.2126   -3.3186    0.0000 H       1  UNL1        0.0428
     39 H           1.4730   -0.7323    0.0000 H       1  UNL1        0.0470
     40 H           1.6037   -1.5357    0.0000 H       1  UNL1        0.0470
     41 H           2.0694    0.3827    0.0000 H       1  UNL1        0.0586
     42 H           4.4939   -0.2199    0.0000 H       1  UNL1        0.0746
     43 H           4.8924    0.4704    0.0000 H       1  UNL1        0.0746
     44 H           6.6849   -1.9895    0.0000 H       1  UNL1        0.0330
     45 H           6.6678    0.4453    0.0000 H       1  UNL1        0.0746
     46 H           7.4168    2.1727    0.0000 H       1  UNL1        0.0766
     47 H           5.2801    0.7953    0.0000 H       1  UNL1        0.0330
     48 H           6.2210   -2.5071    0.0000 H       1  UNL1        0.0233
     49 H           6.3733   -3.3706    0.0000 H       1  UNL1        0.0233
     50 H           7.2368   -3.2184    0.0000 H       1  UNL1        0.0233
     51 H           8.2447   -2.7484    0.0000 H       1  UNL1        0.0233
     52 H           8.9163   -2.1848    0.0000 H       1  UNL1        0.0233
     53 H           8.3527   -1.5131    0.0000 H       1  UNL1        0.0233
     54 H           8.2842   -0.9577    0.0000 H       1  UNL1        0.2110
     55 H           7.4999    2.8627    0.0000 H       1  UNL1        0.0266
     56 H           6.8799    3.4827    0.0000 H       1  UNL1        0.0266
     57 H           6.2599    2.8627    0.0000 H       1  UNL1        0.0266
     58 H           4.5867    0.5362    0.0000 H       1  UNL1        0.0233
     59 H           4.2868   -0.2877    0.0000 H       1  UNL1        0.0233
     60 H           5.1107   -0.5877    0.0000 H       1  UNL1        0.0233
     61 H           6.1298   -0.8548    0.0000 H       1  UNL1        0.0233
     62 H           7.0066   -0.8548    0.0000 H       1  UNL1        0.0233
     63 H           7.0066    0.0220    0.0000 H       1  UNL1        0.0233
     64 H           7.3198    0.8161    0.0000 H       1  UNL1        0.2110
     65 H           5.7875   -0.9215    0.0000 H       1  UNL1        0.2106
@<TRIPOS>BOND
     1     1    12    1
     2     1    20    1
     3     2    18    1
     4     2    26    1
     5    19     3    1
     6     3    54    1
     7     4    24    1
     8     4    27    1
     9    21     5    1
    10     5    64    1
    11     6    20    2
    12    23     7    1
    13     7    65    1
    14     8    26    2
    15     9    27    2
    16    10    11    1
    17    10    14    1
    18    10    16    1
    19    11    12    1
    20    11    15    1
    21    11    33    1
    22    12    13    1
    23    12    34    1
    24    13    14    1
    25    13    35    1
    26    13    36    1
    27    14    37    1
    28    14    38    1
    29    15    17    2
    30    15    18    1
    31    16    17    1
    32    16    39    1
    33    16    40    1
    34    17    41    1
    35    18    42    1
    36    18    43    1
    37    19    20    1
    38    19    22    1
    39    19    23    1
    40    21    24    1
    41    21    25    1
    42    21    26    1
    43    22    28    1
    44    22    29    1
    45    22    44    1
    46    23    27    1
    47    23    45    1
    48    24    30    1
    49    24    46    1
    50    25    31    1
    51    25    32    1
    52    25    47    1
    53    28    48    1
    54    28    49    1
    55    28    50    1
    56    29    51    1
    57    29    52    1
    58    29    53    1
    59    30    55    1
    60    30    56    1
    61    30    57    1
    62    31    58    1
    63    31    59    1
    64    31    60    1
    65    32    61    1
    66    32    62    1
    67    32    63    1
