@<TRIPOS>MOLECULE
IMPHY007770
 55 58 0 0 0
SMALL
GASTEIGER

@<TRIPOS>ATOM
      1 O           7.1760    2.7651    0.0000 O.3     1  UNL1       -0.3868
      2 O           7.1760   -1.2349    0.0000 O.2     1  UNL1       -0.2910
      3 O           8.9244   -1.2695    0.0000 O.3     1  UNL1       -0.5061
      4 O           2.3100    0.2651    0.0000 O.3     1  UNL1       -0.5060
      5 O           6.3446   -1.4833    0.0000 O.2     1  UNL1       -0.2870
      6 O           2.2754   -1.4833    0.0000 O.2     1  UNL1       -0.2871
      7 C           6.3100    0.2651    0.0000 C.3     1  UNL1        0.0619
      8 C           6.3100    1.2651    0.0000 C.3     1  UNL1        0.0057
      9 C           7.1760    1.7651    0.0000 C.3     1  UNL1        0.0849
     10 C           5.4440    1.7651    0.0000 C.3     1  UNL1       -0.0466
     11 C           7.1760   -0.2349    0.0000 C.2     1  UNL1        0.1775
     12 C           5.3100    0.2651    0.0000 C.ar    1  UNL1       -0.0219
     13 C           8.0420    1.2651    0.0000 C.ar    1  UNL1       -0.0048
     14 C           5.8100   -0.6010    0.0000 C.3     1  UNL1       -0.0480
     15 C           8.0420    0.2651    0.0000 C.ar    1  UNL1        0.0653
     16 C           5.4440    2.7651    0.0000 C.3     1  UNL1       -0.0555
     17 C           4.8100   -0.6010    0.0000 C.ar    1  UNL1        0.0403
     18 C           4.8100    1.1311    0.0000 C.ar    1  UNL1       -0.0535
     19 C           8.9360    1.7997    0.0000 C.ar    1  UNL1       -0.0552
     20 C           8.9360   -0.2696    0.0000 C.ar    1  UNL1        0.1277
     21 C           3.8100   -0.6010    0.0000 C.ar    1  UNL1        0.0741
     22 C           4.5780    3.2651    0.0000 C.3     1  UNL1       -0.0653
     23 C           5.3447   -1.4949    0.0000 C.2     1  UNL1        0.1901
     24 C           3.8100    1.1311    0.0000 C.ar    1  UNL1       -0.0191
     25 C           9.8421    1.2859    0.0000 C.ar    1  UNL1       -0.0579
     26 C           9.8421    0.2442    0.0000 C.ar    1  UNL1       -0.0195
     27 C           3.3100    0.2651    0.0000 C.ar    1  UNL1        0.1283
     28 C           3.2753   -1.4949    0.0000 C.2     1  UNL1        0.1906
     29 C           4.8308   -2.4010    0.0000 C.2     1  UNL1        0.0005
     30 C           3.7892   -2.4010    0.0000 C.2     1  UNL1       -0.0077
     31 C           5.3342   -3.2651    0.0000 C.3     1  UNL1       -0.0359
     32 H           6.3100    1.8851    0.0000 H       1  UNL1        0.0342
     33 H           7.7130    2.0751    0.0000 H       1  UNL1        0.0647
     34 H           4.8334    1.8727    0.0000 H       1  UNL1        0.0269
     35 H           5.2319    1.1824    0.0000 H       1  UNL1        0.0269
     36 H           5.2731   -0.2910    0.0000 H       1  UNL1        0.0242
     37 H           5.5000   -1.1379    0.0000 H       1  UNL1        0.0242
     38 H           6.3469   -0.9110    0.0000 H       1  UNL1        0.0242
     39 H           6.0546    2.6574    0.0000 H       1  UNL1        0.0263
     40 H           5.6560    3.3477    0.0000 H       1  UNL1        0.0263
     41 H           5.1200    1.6680    0.0000 H       1  UNL1        0.0622
     42 H           8.9288    2.4197    0.0000 H       1  UNL1        0.0621
     43 H           7.7130    3.0751    0.0000 H       1  UNL1        0.2102
     44 H           4.8880    3.8020    0.0000 H       1  UNL1        0.0230
     45 H           4.0410    3.5751    0.0000 H       1  UNL1        0.0230
     46 H           4.2680    2.7281    0.0000 H       1  UNL1        0.0230
     47 H           3.5000    1.6680    0.0000 H       1  UNL1        0.0654
     48 H          10.3778    1.5980    0.0000 H       1  UNL1        0.0619
     49 H          10.3778   -0.0678    0.0000 H       1  UNL1        0.0654
     50 H           3.4771   -2.9367    0.0000 H       1  UNL1        0.0660
     51 H           9.4577   -1.5857    0.0000 H       1  UNL1        0.2922
     52 H           4.7984   -3.5771    0.0000 H       1  UNL1        0.0279
     53 H           5.6462   -3.8008    0.0000 H       1  UNL1        0.0279
     54 H           5.8699   -2.9530    0.0000 H       1  UNL1        0.0279
     55 H           2.0000    0.8020    0.0000 H       1  UNL1        0.2922
@<TRIPOS>BOND
     1     9     1    1
     2     1    43    1
     3     2    11    2
     4     3    20    1
     5     3    51    1
     6     4    27    1
     7     4    55    1
     8     5    23    2
     9     6    28    2
    10     7     8    1
    11     7    11    1
    12     7    12    1
    13     7    14    1
    14     8     9    1
    15     8    10    1
    16     8    32    1
    17     9    13    1
    18     9    33    1
    19    10    16    1
    20    10    34    1
    21    10    35    1
    22    11    15    1
    23    12    17   ar
    24    12    18   ar
    25    13    15   ar
    26    13    19   ar
    27    14    36    1
    28    14    37    1
    29    14    38    1
    30    15    20   ar
    31    16    22    1
    32    16    39    1
    33    16    40    1
    34    17    21   ar
    35    17    23    1
    36    18    24   ar
    37    18    41    1
    38    19    25   ar
    39    19    42    1
    40    20    26   ar
    41    21    27   ar
    42    21    28    1
    43    22    44    1
    44    22    45    1
    45    22    46    1
    46    23    29    1
    47    24    27   ar
    48    24    47    1
    49    25    26   ar
    50    25    48    1
    51    26    49    1
    52    28    30    1
    53    29    30    2
    54    29    31    1
    55    30    50    1
    56    31    52    1
    57    31    53    1
    58    31    54    1
