@<TRIPOS>MOLECULE
IMPHY015214
 21 21 0 0 0
SMALL
GASTEIGER

@<TRIPOS>ATOM
      1 O           2.0000    0.3952    0.0000 O.2     1  UNL1       -0.2921
      2 C           3.2601   -0.8649    0.0000 C.3     1  UNL1        0.0226
      3 C           4.2601   -0.8649    0.0000 C.3     1  UNL1       -0.0218
      4 C           4.5691    0.0861    0.0000 C.2     1  UNL1       -0.0657
      5 C           3.7601    0.6739    0.0000 C.2     1  UNL1       -0.0088
      6 C           2.9511    0.0861    0.0000 C.2     1  UNL1        0.1620
      7 C           2.6723   -1.6739    0.0000 C.3     1  UNL1       -0.0551
      8 C           5.5202    0.3952    0.0000 C.3     1  UNL1       -0.0431
      9 C           3.7601    1.6739    0.0000 C.3     1  UNL1       -0.0364
     10 H           2.6477   -0.7679    0.0000 H       1  UNL1        0.0381
     11 H           4.1953   -1.4815    0.0000 H       1  UNL1        0.0317
     12 H           4.8665   -0.9938    0.0000 H       1  UNL1        0.0317
     13 H           2.1707   -1.3095    0.0000 H       1  UNL1        0.0237
     14 H           2.3079   -2.1755    0.0000 H       1  UNL1        0.0237
     15 H           3.1739   -2.0384    0.0000 H       1  UNL1        0.0237
     16 H           5.7117   -0.1945    0.0000 H       1  UNL1        0.0275
     17 H           6.1098    0.5868    0.0000 H       1  UNL1        0.0275
     18 H           5.3286    0.9848    0.0000 H       1  UNL1        0.0275
     19 H           4.3801    1.6739    0.0000 H       1  UNL1        0.0279
     20 H           3.7601    2.2939    0.0000 H       1  UNL1        0.0279
     21 H           3.1401    1.6739    0.0000 H       1  UNL1        0.0279
@<TRIPOS>BOND
     1     1     6    2
     2     2     3    1
     3     2     6    1
     4     2     7    1
     5     2    10    1
     6     3     4    1
     7     3    11    1
     8     3    12    1
     9     4     5    2
    10     4     8    1
    11     5     6    1
    12     5     9    1
    13     7    13    1
    14     7    14    1
    15     7    15    1
    16     8    16    1
    17     8    17    1
    18     8    18    1
    19     9    19    1
    20     9    20    1
    21     9    21    1
