@<TRIPOS>MOLECULE
IMPHY001785
 24 25 0 0 0
SMALL
GASTEIGER

@<TRIPOS>ATOM
      1 C           4.5981   -0.5000    0.0000 C.ar    1  UNL1       -0.0176
      2 C           4.5981    0.5000    0.0000 C.ar    1  UNL1       -0.0176
      3 C           3.7320    1.0000    0.0000 C.ar    1  UNL1       -0.0511
      4 C           5.4920   -1.0347    0.0000 C.ar    1  UNL1       -0.0511
      5 C           2.8660    0.5000    0.0000 C.ar    1  UNL1       -0.0499
      6 C           6.3981   -0.5208    0.0000 C.ar    1  UNL1       -0.0499
      7 C           3.7320   -1.0000    0.0000 C.ar    1  UNL1       -0.0538
      8 C           5.4920    1.0347    0.0000 C.ar    1  UNL1       -0.0538
      9 C           2.8660   -0.5000    0.0000 C.ar    1  UNL1       -0.0582
     10 C           6.3981    0.5208    0.0000 C.ar    1  UNL1       -0.0582
     11 C           2.0000    1.0000    0.0000 C.3     1  UNL1       -0.0397
     12 C           7.2622   -1.0241    0.0000 C.3     1  UNL1       -0.0397
     13 H           3.7320    1.6200    0.0000 H       1  UNL1        0.0626
     14 H           5.4848   -1.6546    0.0000 H       1  UNL1        0.0626
     15 H           3.7320   -1.6200    0.0000 H       1  UNL1        0.0624
     16 H           5.4848    1.6546    0.0000 H       1  UNL1        0.0624
     17 H           2.3291   -0.8100    0.0000 H       1  UNL1        0.0620
     18 H           6.9338    0.8329    0.0000 H       1  UNL1        0.0620
     19 H           6.9501   -1.5599    0.0000 H       1  UNL1        0.0278
     20 H           7.7979   -1.3362    0.0000 H       1  UNL1        0.0278
     21 H           7.5742   -0.4884    0.0000 H       1  UNL1        0.0278
     22 H           2.3100    1.5369    0.0000 H       1  UNL1        0.0278
     23 H           1.4631    1.3100    0.0000 H       1  UNL1        0.0278
     24 H           1.6900    0.4631    0.0000 H       1  UNL1        0.0278
@<TRIPOS>BOND
     1     1     2   ar
     2     1     4   ar
     3     1     7   ar
     4     2     3   ar
     5     2     8   ar
     6     3     5   ar
     7     3    13    1
     8     4     6   ar
     9     4    14    1
    10     5     9   ar
    11     5    11    1
    12     6    10   ar
    13     6    12    1
    14     7     9   ar
    15     7    15    1
    16     8    10   ar
    17     8    16    1
    18     9    17    1
    19    10    18    1
    20    11    22    1
    21    11    23    1
    22    11    24    1
    23    12    19    1
    24    12    20    1
    25    12    21    1
