@<TRIPOS>MOLECULE
IMPHY013225
 36 38 0 0 0
SMALL
GASTEIGER

@<TRIPOS>ATOM
      1 O           4.7690    2.2162    0.0000 O.3     1  UNL1       -0.4531
      2 O           2.5369   -0.3226    0.0000 O.3     1  UNL1       -0.5060
      3 O           3.1812    3.0252    0.0000 O.2     1  UNL1       -0.2456
      4 O           4.2690   -3.3226    0.0000 O.3     1  UNL1       -0.5066
      5 O           9.0016    3.6326    0.0000 O.3     1  UNL1       -0.5068
      6 C           5.0780    1.2651    0.0000 C.3     1  UNL1        0.1332
      7 C           6.0291    0.9561    0.0000 C.3     1  UNL1        0.0139
      8 C           4.2690    0.6774    0.0000 C.2     1  UNL1        0.0104
      9 C           4.2690   -0.3226    0.0000 C.ar    1  UNL1        0.0235
     10 C           6.7722    1.6252    0.0000 C.ar    1  UNL1       -0.0433
     11 C           3.4600    1.2651    0.0000 C.2     1  UNL1        0.0299
     12 C           3.7690    2.2162    0.0000 C.2     1  UNL1        0.3329
     13 C           3.4030   -0.8226    0.0000 C.ar    1  UNL1        0.1278
     14 C           5.1350   -0.8226    0.0000 C.ar    1  UNL1       -0.0473
     15 C           6.5643    2.6034    0.0000 C.ar    1  UNL1       -0.0550
     16 C           7.7233    1.3162    0.0000 C.ar    1  UNL1       -0.0550
     17 C           3.4030   -1.8226    0.0000 C.ar    1  UNL1        0.0219
     18 C           5.1350   -1.8226    0.0000 C.ar    1  UNL1       -0.0194
     19 C           7.3074    3.2725    0.0000 C.ar    1  UNL1       -0.0199
     20 C           8.4664    1.9854    0.0000 C.ar    1  UNL1       -0.0199
     21 C           4.2690   -2.3226    0.0000 C.ar    1  UNL1        0.1204
     22 C           8.2585    2.9635    0.0000 C.ar    1  UNL1        0.1169
     23 H           5.5164    1.7036    0.0000 H       1  UNL1        0.0789
     24 H           5.7380    0.4087    0.0000 H       1  UNL1        0.0352
     25 H           6.5176    0.5744    0.0000 H       1  UNL1        0.0352
     26 H           2.8703    1.0736    0.0000 H       1  UNL1        0.0693
     27 H           5.6720   -0.5126    0.0000 H       1  UNL1        0.0626
     28 H           5.9746    2.7950    0.0000 H       1  UNL1        0.0621
     29 H           7.8522    0.7098    0.0000 H       1  UNL1        0.0621
     30 H           2.8660   -2.1326    0.0000 H       1  UNL1        0.0691
     31 H           5.6720   -2.1326    0.0000 H       1  UNL1        0.0654
     32 H           7.1785    3.8790    0.0000 H       1  UNL1        0.0654
     33 H           9.0561    1.7938    0.0000 H       1  UNL1        0.0654
     34 H           2.0000   -0.6326    0.0000 H       1  UNL1        0.2922
     35 H           4.8059   -3.6326    0.0000 H       1  UNL1        0.2921
     36 H           9.5913    3.4410    0.0000 H       1  UNL1        0.2921
@<TRIPOS>BOND
     1     1     6    1
     2     1    12    1
     3     2    13    1
     4     2    34    1
     5     3    12    2
     6     4    21    1
     7     4    35    1
     8     5    22    1
     9     5    36    1
    10     6     7    1
    11     6     8    1
    12     6    23    1
    13     7    10    1
    14     7    24    1
    15     7    25    1
    16     8     9    1
    17     8    11    2
    18     9    13   ar
    19     9    14   ar
    20    10    15   ar
    21    10    16   ar
    22    11    12    1
    23    11    26    1
    24    13    17   ar
    25    14    18   ar
    26    14    27    1
    27    15    19   ar
    28    15    28    1
    29    16    20   ar
    30    16    29    1
    31    17    21   ar
    32    17    30    1
    33    18    21   ar
    34    18    31    1
    35    19    22   ar
    36    19    32    1
    37    20    22   ar
    38    20    33    1
