@<TRIPOS>MOLECULE
IMPHY015763
 38 40 0 0 0
SMALL
GASTEIGER

@<TRIPOS>ATOM
      1 O           5.5926    1.7846    0.0000 O.2     1  UNL1       -0.2965
      2 C           4.7266    0.2846    0.0000 C.3     1  UNL1        0.0558
      3 C           2.9945    1.2846    0.0000 C.3     1  UNL1       -0.0243
      4 C           2.9945    0.2846    0.0000 C.3     1  UNL1       -0.0097
      5 C           3.6775    0.4676    0.0000 C.3     1  UNL1       -0.0324
      6 C           5.6366   -0.2222    0.0000 C.3     1  UNL1       -0.0185
      7 C           3.8606   -0.2154    0.0000 C.2     1  UNL1       -0.0538
      8 C           3.8606    1.7846    0.0000 C.3     1  UNL1        0.0104
      9 C           4.7266    1.2846    0.0000 C.2     1  UNL1        0.1442
     10 C           5.6446   -1.2638    0.0000 C.3     1  UNL1       -0.0432
     11 C           3.8445   -1.2569    0.0000 C.2     1  UNL1       -0.0833
     12 C           2.0000    0.3892    0.0000 C.3     1  UNL1       -0.0558
     13 C           2.5878   -0.6289    0.0000 C.3     1  UNL1       -0.0558
     14 C           4.7425   -1.7846    0.0000 C.3     1  UNL1       -0.0339
     15 C           6.6365   -0.2107    0.0000 C.3     1  UNL1       -0.0586
     16 C           6.1265    0.6495    0.0000 C.3     1  UNL1       -0.0586
     17 H           2.4576    1.5946    0.0000 H       1  UNL1        0.0313
     18 H           3.1081    0.2224    0.0000 H       1  UNL1        0.0281
     19 H           3.7499   -0.1481    0.0000 H       1  UNL1        0.0281
     20 H           4.2591    2.2596    0.0000 H       1  UNL1        0.0345
     21 H           3.4620    2.2596    0.0000 H       1  UNL1        0.0345
     22 H           5.8582   -1.8459    0.0000 H       1  UNL1        0.0274
     23 H           6.2546   -1.1530    0.0000 H       1  UNL1        0.0274
     24 H           3.3040   -1.5607    0.0000 H       1  UNL1        0.0572
     25 H           2.0648    1.0058    0.0000 H       1  UNL1        0.0238
     26 H           1.3834    0.4540    0.0000 H       1  UNL1        0.0238
     27 H           1.9352   -0.2274    0.0000 H       1  UNL1        0.0238
     28 H           2.0214   -0.3767    0.0000 H       1  UNL1        0.0238
     29 H           2.3356   -1.1953    0.0000 H       1  UNL1        0.0238
     30 H           3.1542   -0.8811    0.0000 H       1  UNL1        0.0238
     31 H           4.3416   -2.2575    0.0000 H       1  UNL1        0.0308
     32 H           5.1398   -2.2606    0.0000 H       1  UNL1        0.0308
     33 H           6.6437   -0.8306    0.0000 H       1  UNL1        0.0235
     34 H           7.2565   -0.2035    0.0000 H       1  UNL1        0.0235
     35 H           6.6293    0.4093    0.0000 H       1  UNL1        0.0235
     36 H           6.6670    0.3458    0.0000 H       1  UNL1        0.0235
     37 H           6.4303    1.1900    0.0000 H       1  UNL1        0.0235
     38 H           5.5860    0.9533    0.0000 H       1  UNL1        0.0235
@<TRIPOS>BOND
     1     1     9    2
     2     2     5    1
     3     2     6    1
     4     2     7    1
     5     2     9    1
     6     3     4    1
     7     3     5    1
     8     3     8    1
     9     3    17    1
    10     4     7    1
    11     4    12    1
    12     4    13    1
    13     5    18    1
    14     5    19    1
    15     6    10    1
    16     6    15    1
    17     6    16    1
    18     7    11    2
    19     8     9    1
    20     8    20    1
    21     8    21    1
    22    10    14    1
    23    10    22    1
    24    10    23    1
    25    11    14    1
    26    11    24    1
    27    12    25    1
    28    12    26    1
    29    12    27    1
    30    13    28    1
    31    13    29    1
    32    13    30    1
    33    14    31    1
    34    14    32    1
    35    15    33    1
    36    15    34    1
    37    15    35    1
    38    16    36    1
    39    16    37    1
    40    16    38    1
