@<TRIPOS>MOLECULE
IMPHY013002
 45 46 0 0 0
SMALL
GASTEIGER

@<TRIPOS>ATOM
      1 O           2.8660   -1.2500    0.0000 O.3     1  UNL1       -0.4942
      2 O           5.4641    3.2500    0.0000 O.3     1  UNL1       -0.4909
      3 O           4.5981   -4.2500    0.0000 O.3     1  UNL1       -0.4949
      4 O           7.1962    4.2500    0.0000 O.3     1  UNL1       -0.4914
      5 O           6.3301   -1.2500    0.0000 O.3     1  UNL1       -0.5058
      6 O           3.7320    0.2500    0.0000 O.2     1  UNL1       -0.2870
      7 C           4.5981   -1.2500    0.0000 C.ar    1  UNL1        0.1047
      8 C           6.3301    1.7500    0.0000 C.ar    1  UNL1        0.0204
      9 C           3.7320   -1.7500    0.0000 C.ar    1  UNL1        0.1379
     10 C           5.4641   -1.7500    0.0000 C.ar    1  UNL1        0.1346
     11 C           6.3301    2.7500    0.0000 C.ar    1  UNL1        0.1686
     12 C           4.5981   -0.2500    0.0000 C.2     1  UNL1        0.1931
     13 C           3.7320   -2.7500    0.0000 C.ar    1  UNL1        0.0227
     14 C           5.4641    1.2500    0.0000 C.2     1  UNL1       -0.0473
     15 C           4.5981   -3.2500    0.0000 C.ar    1  UNL1        0.1271
     16 C           5.4641   -2.7500    0.0000 C.ar    1  UNL1        0.0225
     17 C           7.1962    3.2500    0.0000 C.ar    1  UNL1        0.1621
     18 C           5.4641    0.2500    0.0000 C.2     1  UNL1       -0.0134
     19 C           7.1962    1.2500    0.0000 C.ar    1  UNL1       -0.0509
     20 C           8.0622    2.7500    0.0000 C.ar    1  UNL1       -0.0163
     21 C           8.0622    1.7500    0.0000 C.ar    1  UNL1       -0.0575
     22 C           2.0000   -1.7500    0.0000 C.3     1  UNL1        0.0788
     23 C           5.4641    4.2500    0.0000 C.3     1  UNL1        0.0790
     24 C           5.4641   -4.7500    0.0000 C.3     1  UNL1        0.0788
     25 C           8.0622    4.7500    0.0000 C.3     1  UNL1        0.0790
     26 H           3.1951   -3.0600    0.0000 H       1  UNL1        0.0691
     27 H           4.9272    1.5600    0.0000 H       1  UNL1        0.0626
     28 H           6.0010   -3.0600    0.0000 H       1  UNL1        0.0691
     29 H           6.0010   -0.0600    0.0000 H       1  UNL1        0.0656
     30 H           7.1962    0.6300    0.0000 H       1  UNL1        0.0625
     31 H           8.5991    3.0600    0.0000 H       1  UNL1        0.0655
     32 H           8.5991    1.4400    0.0000 H       1  UNL1        0.0619
     33 H           6.8671   -1.5600    0.0000 H       1  UNL1        0.2922
     34 H           1.6900   -1.2131    0.0000 H       1  UNL1        0.0660
     35 H           1.4631   -2.0600    0.0000 H       1  UNL1        0.0660
     36 H           2.3100   -2.2869    0.0000 H       1  UNL1        0.0660
     37 H           6.0841    4.2500    0.0000 H       1  UNL1        0.0660
     38 H           5.4641    4.8700    0.0000 H       1  UNL1        0.0660
     39 H           4.8441    4.2500    0.0000 H       1  UNL1        0.0660
     40 H           5.1541   -5.2869    0.0000 H       1  UNL1        0.0660
     41 H           6.0010   -5.0600    0.0000 H       1  UNL1        0.0660
     42 H           5.7741   -4.2131    0.0000 H       1  UNL1        0.0660
     43 H           8.3722    4.2131    0.0000 H       1  UNL1        0.0660
     44 H           8.5991    5.0600    0.0000 H       1  UNL1        0.0660
     45 H           7.7522    5.2869    0.0000 H       1  UNL1        0.0660
@<TRIPOS>BOND
     1     1     9    1
     2     1    22    1
     3     2    11    1
     4     2    23    1
     5     3    15    1
     6     3    24    1
     7     4    17    1
     8     4    25    1
     9     5    10    1
    10     5    33    1
    11     6    12    2
    12     7     9   ar
    13     7    10   ar
    14     7    12    1
    15     8    11   ar
    16     8    14    1
    17     8    19   ar
    18     9    13   ar
    19    10    16   ar
    20    11    17   ar
    21    12    18    1
    22    13    15   ar
    23    13    26    1
    24    14    18    2
    25    14    27    1
    26    15    16   ar
    27    16    28    1
    28    17    20   ar
    29    18    29    1
    30    19    21   ar
    31    19    30    1
    32    20    21   ar
    33    20    31    1
    34    21    32    1
    35    22    34    1
    36    22    35    1
    37    22    36    1
    38    23    37    1
    39    23    38    1
    40    23    39    1
    41    24    40    1
    42    24    41    1
    43    24    42    1
    44    25    43    1
    45    25    44    1
    46    25    45    1
