@<TRIPOS>MOLECULE
IMPHY009743
 39 41 0 0 0
SMALL
GASTEIGER

@<TRIPOS>ATOM
      1 C           4.5037   -0.8508    0.0000 C.3     1  UNL1       -0.0255
      2 C           5.3302   -1.4146    0.0000 C.3     1  UNL1       -0.0281
      3 C           5.4047   -0.4169    0.0000 C.3     1  UNL1       -0.0317
      4 C           3.6027   -0.4169    0.0000 C.3     1  UNL1       -0.0135
      5 C           3.3802    0.5580    0.0000 C.3     1  UNL1       -0.0314
      6 C           5.6272    0.5580    0.0000 C.3     1  UNL1       -0.0492
      7 C           4.0037    1.3398    0.0000 C.3     1  UNL1       -0.0405
      8 C           6.3274   -1.4893    0.0000 C.3     1  UNL1       -0.0593
      9 C           4.7668   -2.2408    0.0000 C.3     1  UNL1       -0.0593
     10 C           5.0037    1.3398    0.0000 C.3     1  UNL1       -0.0499
     11 C           2.7480   -0.9246    0.0000 C.2     1  UNL1       -0.0730
     12 C           2.3899    0.6446    0.0000 C.3     1  UNL1       -0.0457
     13 C           2.0000   -0.2699    0.0000 C.3     1  UNL1       -0.0314
     14 C           3.5698    2.2408    0.0000 C.3     1  UNL1       -0.0621
     15 C           2.6567   -1.9204    0.0000 C.2     1  UNL1       -0.0992
     16 H           4.0786   -1.5869    0.0000 H       1  UNL1        0.0315
     17 H           6.2452   -0.5435    0.0000 H       1  UNL1        0.0309
     18 H           3.6398   -1.2661    0.0000 H       1  UNL1        0.0351
     19 H           3.0451    1.3392    0.0000 H       1  UNL1        0.0309
     20 H           6.1858    0.2890    0.0000 H       1  UNL1        0.0268
     21 H           6.0138    1.0428    0.0000 H       1  UNL1        0.0268
     22 H           4.3336    1.8648    0.0000 H       1  UNL1        0.0301
     23 H           5.5623    1.6089    0.0000 H       1  UNL1        0.0268
     24 H           4.8657    1.9443    0.0000 H       1  UNL1        0.0268
     25 H           6.2810   -2.1076    0.0000 H       1  UNL1        0.0235
     26 H           6.9456   -1.5356    0.0000 H       1  UNL1        0.0235
     27 H           6.3737   -0.8710    0.0000 H       1  UNL1        0.0235
     28 H           4.2546   -1.8916    0.0000 H       1  UNL1        0.0235
     29 H           4.4176   -2.7531    0.0000 H       1  UNL1        0.0235
     30 H           5.2791   -2.5901    0.0000 H       1  UNL1        0.0235
     31 H           2.5085    1.2531    0.0000 H       1  UNL1        0.0271
     32 H           1.7972    0.8264    0.0000 H       1  UNL1        0.0271
     33 H           1.4584    0.0319    0.0000 H       1  UNL1        0.0310
     34 H           1.6430   -0.7768    0.0000 H       1  UNL1        0.0310
     35 H           4.1284    2.5098    0.0000 H       1  UNL1        0.0233
     36 H           3.3008    2.7994    0.0000 H       1  UNL1        0.0233
     37 H           3.0112    1.9718    0.0000 H       1  UNL1        0.0233
     38 H           2.0937   -2.1800    0.0000 H       1  UNL1        0.0534
     39 H           3.1630   -2.2781    0.0000 H       1  UNL1        0.0534
@<TRIPOS>BOND
     1     1     2    1
     2     1     3    1
     3     1     4    1
     4     1    16    1
     5     2     3    1
     6     2     8    1
     7     2     9    1
     8     3     6    1
     9     3    17    1
    10     4     5    1
    11     4    11    1
    12     4    18    1
    13     5     7    1
    14     5    12    1
    15     5    19    1
    16     6    10    1
    17     6    20    1
    18     6    21    1
    19     7    10    1
    20     7    14    1
    21     7    22    1
    22     8    25    1
    23     8    26    1
    24     8    27    1
    25     9    28    1
    26     9    29    1
    27     9    30    1
    28    10    23    1
    29    10    24    1
    30    11    13    1
    31    11    15    2
    32    12    13    1
    33    12    31    1
    34    12    32    1
    35    13    33    1
    36    13    34    1
    37    14    35    1
    38    14    36    1
    39    14    37    1
    40    15    38    1
    41    15    39    1
