@<TRIPOS>MOLECULE
IMPHY010666
 37 41 0 0 0
SMALL
GASTEIGER

@<TRIPOS>ATOM
      1 O           9.0442   -3.9229    0.0000 O.3     1  UNL1       -0.4541
      2 C           7.9137   -3.2559    0.0000 C.3     1  UNL1        0.1472
      3 C           7.9137   -1.9558    0.0000 C.3     1  UNL1        0.0604
      4 C           9.0442   -1.3114    0.0000 C.2     1  UNL1       -0.0384
      5 C          10.1747   -1.9558    0.0000 C.2     1  UNL1        0.0460
      6 C          10.1747   -3.2559    0.0000 C.2     1  UNL1        0.3362
      7 C           6.7831   -3.9229    0.0000 C.3     1  UNL1        0.1533
      8 O           6.7831   -2.6115    0.0000 O.3     1  UNL1       -0.2227
      9 C           9.0442    0.0000    0.0000 C.3     1  UNL1        0.0263
     10 C          11.3052   -1.3114    0.0000 C.3     1  UNL1        0.0372
     11 O          11.3052   -3.9229    0.0000 O.2     1  UNL1       -0.2453
     12 C           6.7831   -5.2230    0.0000 C.3     1  UNL1        0.0122
     13 C           5.6639   -5.8787    0.0000 C.3     1  UNL1        0.0245
     14 C           5.6639   -7.1901    0.0000 C.3     1  UNL1        0.1228
     15 C           4.5221   -7.8345    0.0000 C.3     1  UNL1        0.0082
     16 C           3.3916   -7.1901    0.0000 C.3     1  UNL1       -0.0103
     17 C           3.3916   -5.8787    0.0000 C.3     1  UNL1       -0.0034
     18 C           4.5221   -5.2230    0.0000 C.3     1  UNL1        0.0018
     19 C           7.9137   -5.8787    0.0000 C.3     1  UNL1        0.0011
     20 C           7.9137   -7.1901    0.0000 C.3     1  UNL1        0.0299
     21 C           4.5221   -9.1459    0.0000 C.3     1  UNL1        0.0238
     22 C           3.3916   -9.8016    0.0000 C.2     1  UNL1       -0.0303
     23 C           2.2610   -9.1459    0.0000 C.2     1  UNL1       -0.0211
     24 C           1.1305   -9.8016    0.0000 C.2     1  UNL1       -0.0084
     25 C           0.0000   -9.1459    0.0000 C.2     1  UNL1       -0.0187
     26 C           0.0000   -7.8345    0.0000 C.3     1  UNL1        0.0907
     27 C           1.1305   -7.1901    0.0000 C.2     1  UNL1        0.1576
     28 C           2.2610   -7.8345    0.0000 C.3     1  UNL1        0.0667
     29 C           5.6413   -3.2672    0.0000 C.3     1  UNL1        0.0359
     30 C           5.6639   -4.5786    0.0000 C.3     1  UNL1        0.0022
     31 O           5.6639   -8.4902    0.0000 O.3     1  UNL1       -0.2260
     32 O           1.1305   -5.8787    0.0000 O.2     1  UNL1       -0.2954
     33 C           2.2610   -6.5344    0.0000 C.3     1  UNL1        0.0114
     34 H           6.7831   -6.5570    0.0000 H       1  UNL1        0.0344
     35 H           4.5221   -6.6023    0.0000 H       1  UNL1        0.0342
     36 H           3.3916   -8.5468    0.0000 H       1  UNL1        0.0323
     37 H           7.9137   -4.5673    0.0000 H       1  UNL1        0.0774
@<TRIPOS>BOND
     1     1     2    1
     2     1     6    1
     3     2     7    1
     4     2     3    1
     5     2    37    1
     6     3     4    1
     7     4     5    2
     8     4     9    1
     9     5     6    1
    10     5    10    1
    11     6    11    2
    12     7    12    1
    13     7    29    1
    14     7     8    1
    15    12    13    1
    16    12    19    1
    17    12    34    1
    18    13    14    1
    19    13    18    1
    20    13    30    1
    21    14    15    1
    22    14    31    1
    23    14    20    1
    24    15    16    1
    25    15    21    1
    26    15    35    1
    27    16    28    1
    28    16    17    1
    29    16    36    1
    30    17    18    1
    31    19    20    1
    32    21    22    1
    33    22    23    2
    34    23    28    1
    35    23    24    1
    36    24    25    2
    37    25    26    1
    38    26    27    1
    39    27    28    1
    40    27    32    2
    41    28    33    1
