@<TRIPOS>MOLECULE
IMPHY013095
 40 42 0 0 0
SMALL
GASTEIGER

@<TRIPOS>ATOM
      1 O           4.2690   -2.0950    0.0000 O.3     1  UNL1       -0.3694
      2 O           2.5369   -0.0950    0.0000 O.3     1  UNL1       -0.3889
      3 O           6.0010    2.9050    0.0000 O.3     1  UNL1       -0.5033
      4 O           4.2690    3.9050    0.0000 O.3     1  UNL1       -0.5033
      5 O           8.5991   -3.5950    0.0000 O.3     1  UNL1       -0.5068
      6 C           4.2690   -0.0950    0.0000 C.3     1  UNL1        0.0151
      7 C           5.1350   -0.5950    0.0000 C.3     1  UNL1       -0.0132
      8 C           3.4030   -0.5950    0.0000 C.3     1  UNL1        0.0854
      9 C           5.1350   -1.5950    0.0000 C.3     1  UNL1        0.0844
     10 C           3.4030   -1.5950    0.0000 C.3     1  UNL1        0.0749
     11 C           4.2690    0.9050    0.0000 C.ar    1  UNL1       -0.0380
     12 C           6.0010   -2.0950    0.0000 C.ar    1  UNL1       -0.0187
     13 C           5.1350    1.4050    0.0000 C.ar    1  UNL1       -0.0130
     14 C           3.4030    1.4050    0.0000 C.ar    1  UNL1       -0.0545
     15 C           6.8671   -1.5950    0.0000 C.ar    1  UNL1       -0.0527
     16 C           6.0010   -3.0950    0.0000 C.ar    1  UNL1       -0.0527
     17 C           5.1350    2.4050    0.0000 C.ar    1  UNL1        0.1585
     18 C           3.4030    2.4050    0.0000 C.ar    1  UNL1       -0.0163
     19 C           4.2690    2.9050    0.0000 C.ar    1  UNL1        0.1582
     20 C           7.7331   -2.0950    0.0000 C.ar    1  UNL1       -0.0198
     21 C           6.8671   -3.5950    0.0000 C.ar    1  UNL1       -0.0198
     22 C           7.7331   -3.0950    0.0000 C.ar    1  UNL1        0.1169
     23 H           4.8059    0.2150    0.0000 H       1  UNL1        0.0376
     24 H           5.7456   -0.7027    0.0000 H       1  UNL1        0.0300
     25 H           5.3471   -0.0124    0.0000 H       1  UNL1        0.0300
     26 H           3.4030    0.0250    0.0000 H       1  UNL1        0.0622
     27 H           5.1350   -2.2150    0.0000 H       1  UNL1        0.0646
     28 H           2.7924   -1.4873    0.0000 H       1  UNL1        0.0586
     29 H           3.1909   -2.1776    0.0000 H       1  UNL1        0.0586
     30 H           5.6720    1.0950    0.0000 H       1  UNL1        0.0658
     31 H           2.8660    1.0950    0.0000 H       1  UNL1        0.0622
     32 H           2.0000   -0.4050    0.0000 H       1  UNL1        0.2099
     33 H           6.8671   -0.9750    0.0000 H       1  UNL1        0.0622
     34 H           5.4641   -3.4050    0.0000 H       1  UNL1        0.0622
     35 H           2.8660    2.7150    0.0000 H       1  UNL1        0.0655
     36 H           8.2700   -1.7850    0.0000 H       1  UNL1        0.0654
     37 H           6.8671   -4.2150    0.0000 H       1  UNL1        0.0654
     38 H           6.0010    3.5250    0.0000 H       1  UNL1        0.2923
     39 H           3.7320    4.2150    0.0000 H       1  UNL1        0.2923
     40 H           8.5991   -4.2150    0.0000 H       1  UNL1        0.2921
@<TRIPOS>BOND
     1     1     9    1
     2     1    10    1
     3     8     2    1
     4     2    32    1
     5     3    17    1
     6     3    38    1
     7     4    19    1
     8     4    39    1
     9     5    22    1
    10     5    40    1
    11     6     7    1
    12     6     8    1
    13     6    11    1
    14     6    23    1
    15     7     9    1
    16     7    24    1
    17     7    25    1
    18     8    10    1
    19     8    26    1
    20     9    12    1
    21     9    27    1
    22    10    28    1
    23    10    29    1
    24    11    13   ar
    25    11    14   ar
    26    12    15   ar
    27    12    16   ar
    28    13    17   ar
    29    13    30    1
    30    14    18   ar
    31    14    31    1
    32    15    20   ar
    33    15    33    1
    34    16    21   ar
    35    16    34    1
    36    17    19   ar
    37    18    19   ar
    38    18    35    1
    39    20    22   ar
    40    20    36    1
    41    21    22   ar
    42    21    37    1
