@<TRIPOS>MOLECULE
IMPHY015806
 43 47 0 0 0
SMALL
GASTEIGER

@<TRIPOS>ATOM
      1 O           6.0427   -1.5104    0.0000 O.3     1  UNL1       -0.4829
      2 O           6.9608    1.0380    0.0000 O.3     1  UNL1       -0.4879
      3 O           3.4446   -0.0104    0.0000 O.2     1  UNL1       -0.2910
      4 O           4.5204   -4.5902    0.0000 O.2     1  UNL1       -0.4627
      5 O           2.5405   -1.5073    0.0000 O.3     1  UNL1       -0.5058
      6 O           3.3202    3.1265    0.0000 O.3     1  UNL1       -0.4914
      7 O           5.1236    4.1863    0.0000 O.3     1  UNL1       -0.4913
      8 C           5.1767   -0.0104    0.0000 C.3     1  UNL1        0.0909
      9 C           6.0427   -0.5104    0.0000 C.3     1  UNL1        0.1479
     10 C           5.1606    1.0311    0.0000 C.ar    1  UNL1        0.0122
     11 C           6.9527   -0.0036    0.0000 C.3     1  UNL1        0.1273
     12 C           4.3107   -0.5104    0.0000 C.2     1  UNL1        0.1813
     13 C           4.3107   -1.5104    0.0000 C.ar    1  UNL1        0.1018
     14 C           5.1767   -2.0104    0.0000 C.ar    1  UNL1        0.1458
     15 C           6.0587    1.5588    0.0000 C.ar    1  UNL1        0.1283
     16 C           4.2087    1.5517    0.0000 C.ar    1  UNL1       -0.0088
     17 C           5.1928   -3.0519    0.0000 C.ar    1  UNL1        0.0627
     18 C           3.4007   -2.0173    0.0000 C.ar    1  UNL1        0.1344
     19 C           6.0670    2.6438    0.0000 C.ar    1  UNL1        0.0257
     20 C           4.2947   -3.5797    0.0000 C.ar    1  UNL1        0.1418
     21 C           4.1920    2.6366    0.0000 C.ar    1  UNL1        0.1620
     22 C           5.1274    3.1863    0.0000 C.ar    1  UNL1        0.1650
     23 C           3.3926   -3.0589    0.0000 C.ar    1  UNL1        0.0237
     24 C           5.9658   -3.7408    0.0000 C.ar    1  UNL1       -0.0126
     25 C           5.5511   -4.6896    0.0000 C.ar    1  UNL1        0.0933
     26 C           3.3087    4.1265    0.0000 C.3     1  UNL1        0.0790
     27 C           5.9876    4.6896    0.0000 C.3     1  UNL1        0.0790
     28 H           4.6374    0.2954    0.0000 H       1  UNL1        0.0469
     29 H           6.5772   -0.8245    0.0000 H       1  UNL1        0.0778
     30 H           7.1573   -0.5889    0.0000 H       1  UNL1        0.0734
     31 H           7.5644    0.0978    0.0000 H       1  UNL1        0.0734
     32 H           3.6778    1.2314    0.0000 H       1  UNL1        0.0659
     33 H           6.6052    2.9517    0.0000 H       1  UNL1        0.0692
     34 H           2.8545   -3.3668    0.0000 H       1  UNL1        0.0691
     35 H           6.5715   -3.6083    0.0000 H       1  UNL1        0.0656
     36 H           5.8652   -5.2242    0.0000 H       1  UNL1        0.1030
     37 H           2.0000   -1.8110    0.0000 H       1  UNL1        0.2922
     38 H           3.9286    4.1336    0.0000 H       1  UNL1        0.0660
     39 H           3.3015    4.7464    0.0000 H       1  UNL1        0.0660
     40 H           2.6887    4.1193    0.0000 H       1  UNL1        0.0660
     41 H           6.2997    4.1539    0.0000 H       1  UNL1        0.0660
     42 H           6.5234    5.0017    0.0000 H       1  UNL1        0.0660
     43 H           5.6756    5.2254    0.0000 H       1  UNL1        0.0660
@<TRIPOS>BOND
     1     1     9    1
     2     1    14    1
     3     2    11    1
     4     2    15    1
     5     3    12    2
     6     4    20   ar
     7     4    25   ar
     8     5    18    1
     9     5    37    1
    10     6    21    1
    11     6    26    1
    12     7    22    1
    13     7    27    1
    14     8     9    1
    15     8    10    1
    16     8    12    1
    17     8    28    1
    18     9    11    1
    19     9    29    1
    20    10    15   ar
    21    10    16   ar
    22    11    30    1
    23    11    31    1
    24    12    13    1
    25    13    14   ar
    26    13    18   ar
    27    14    17   ar
    28    15    19   ar
    29    16    21   ar
    30    16    32    1
    31    17    20   ar
    32    17    24   ar
    33    18    23   ar
    34    19    22   ar
    35    19    33    1
    36    20    23   ar
    37    21    22   ar
    38    23    34    1
    39    24    25   ar
    40    24    35    1
    41    25    36    1
    42    26    38    1
    43    26    39    1
    44    26    40    1
    45    27    41    1
    46    27    42    1
    47    27    43    1
