@<TRIPOS>MOLECULE
IMPHY005771
 81 85 0 0 0
SMALL
GASTEIGER

@<TRIPOS>ATOM
      1 O           2.5357   -2.6896    0.0000 O.3     1  UNL1       -0.3909
      2 C           7.9288    0.3628    0.0000 C.3     1  UNL1       -0.0228
      3 C           7.9288   -0.6372    0.0000 C.3     1  UNL1       -0.0228
      4 C           8.8228    0.8974    0.0000 C.3     1  UNL1       -0.0267
      5 C           9.7288    0.3836    0.0000 C.3     1  UNL1       -0.0284
      6 C           7.0628   -1.1372    0.0000 C.3     1  UNL1       -0.0257
      7 C           6.1968   -0.6372    0.0000 C.3     1  UNL1       -0.0219
      8 C           7.0628    0.8628    0.0000 C.3     1  UNL1       -0.0463
      9 C           8.8228   -1.1719    0.0000 C.3     1  UNL1       -0.0463
     10 C           9.0329    1.9113    0.0000 C.3     1  UNL1       -0.0348
     11 C           9.7288   -0.6581    0.0000 C.3     1  UNL1       -0.0468
     12 C           6.1968    0.3628    0.0000 C.3     1  UNL1       -0.0463
     13 C          10.4911    1.0843    0.0000 C.3     1  UNL1       -0.0471
     14 C           5.2868   -1.1441    0.0000 C.3     1  UNL1       -0.0136
     15 C          10.0619    2.0266    0.0000 C.3     1  UNL1       -0.0492
     16 C           7.9288    1.3628    0.0000 C.3     1  UNL1       -0.0588
     17 C           7.9288   -1.6372    0.0000 C.3     1  UNL1       -0.0588
     18 C           7.0789   -2.1788    0.0000 C.3     1  UNL1       -0.0306
     19 C          10.5987   -0.1097    0.0000 C.3     1  UNL1       -0.0593
     20 C           8.3593    2.6505    0.0000 C.3     1  UNL1       -0.0436
     21 C           5.2787   -2.1857    0.0000 C.2     1  UNL1       -0.0618
     22 C           5.3307   -0.1372    0.0000 C.3     1  UNL1       -0.0587
     23 C           4.3599   -0.5800    0.0000 C.3     1  UNL1       -0.0436
     24 C           6.1808   -2.7065    0.0000 C.2     1  UNL1       -0.0836
     25 C           4.3433   -2.7354    0.0000 C.3     1  UNL1        0.0123
     26 C           3.4120   -1.1080    0.0000 C.3     1  UNL1       -0.0255
     27 C           3.4037   -2.1929    0.0000 C.3     1  UNL1        0.0640
     28 C           8.6626    3.6034    0.0000 C.3     1  UNL1       -0.0624
     29 C           7.3824    2.4367    0.0000 C.3     1  UNL1       -0.0624
     30 C           3.8467   -3.6034    0.0000 C.3     1  UNL1       -0.0537
     31 C           4.8466   -3.5995    0.0000 C.3     1  UNL1       -0.0537
     32 H           9.5970    1.2481    0.0000 H       1  UNL1        0.0314
     33 H           7.8022   -1.5566    0.0000 H       1  UNL1        0.0315
     34 H           7.4613    1.3377    0.0000 H       1  UNL1        0.0271
     35 H           6.6643    1.3377    0.0000 H       1  UNL1        0.0271
     36 H           8.4182   -1.6417    0.0000 H       1  UNL1        0.0271
     37 H           9.2164   -1.6509    0.0000 H       1  UNL1        0.0271
     38 H           9.2513    2.4916    0.0000 H       1  UNL1        0.0306
     39 H           9.9379   -1.2418    0.0000 H       1  UNL1        0.0271
     40 H          10.3397   -0.5520    0.0000 H       1  UNL1        0.0271
     41 H           5.9847    0.9454    0.0000 H       1  UNL1        0.0271
     42 H           5.5862    0.2551    0.0000 H       1  UNL1        0.0271
     43 H          10.8604    0.5863    0.0000 H       1  UNL1        0.0271
     44 H          11.0252    1.3992    0.0000 H       1  UNL1        0.0271
     45 H           6.0179   -1.5776    0.0000 H       1  UNL1        0.0351
     46 H          10.6500    2.2229    0.0000 H       1  UNL1        0.0268
     47 H           9.9285    2.6321    0.0000 H       1  UNL1        0.0268
     48 H           8.5488    1.3628    0.0000 H       1  UNL1        0.0235
     49 H           7.9288    1.9828    0.0000 H       1  UNL1        0.0235
     50 H           7.3088    1.3628    0.0000 H       1  UNL1        0.0235
     51 H           7.3088   -1.6372    0.0000 H       1  UNL1        0.0235
     52 H           7.9288   -2.2572    0.0000 H       1  UNL1        0.0235
     53 H           8.5488   -1.6372    0.0000 H       1  UNL1        0.0235
     54 H           7.2969   -2.7592    0.0000 H       1  UNL1        0.0310
     55 H           7.6880   -2.0632    0.0000 H       1  UNL1        0.0310
     56 H          10.2928   -0.6490    0.0000 H       1  UNL1        0.0235
     57 H          11.1380   -0.4156    0.0000 H       1  UNL1        0.0235
     58 H          10.9045    0.4296    0.0000 H       1  UNL1        0.0235
     59 H           8.1712    2.0597    0.0000 H       1  UNL1        0.0298
     60 H           5.6407    0.3997    0.0000 H       1  UNL1        0.0235
     61 H           4.7938    0.1728    0.0000 H       1  UNL1        0.0235
     62 H           5.0207   -0.6742    0.0000 H       1  UNL1        0.0235
     63 H           4.7681   -0.1134    0.0000 H       1  UNL1        0.0272
     64 H           3.9700   -0.0980    0.0000 H       1  UNL1        0.0272
     65 H           6.1832   -3.3265    0.0000 H       1  UNL1        0.0572
     66 H           3.2075   -0.5227    0.0000 H       1  UNL1        0.0290
     67 H           2.8004   -1.2093    0.0000 H       1  UNL1        0.0290
     68 H           3.4025   -2.8129    0.0000 H       1  UNL1        0.0602
     69 H           9.2534    3.4153    0.0000 H       1  UNL1        0.0232
     70 H           8.8507    4.1941    0.0000 H       1  UNL1        0.0232
     71 H           8.0718    3.7914    0.0000 H       1  UNL1        0.0232
     72 H           7.2499    3.0424    0.0000 H       1  UNL1        0.0232
     73 H           6.7768    2.3042    0.0000 H       1  UNL1        0.0232
     74 H           7.5150    1.8310    0.0000 H       1  UNL1        0.0232
     75 H           3.3085   -3.2954    0.0000 H       1  UNL1        0.0239
     76 H           3.5387   -4.1415    0.0000 H       1  UNL1        0.0239
     77 H           4.3848   -3.9113    0.0000 H       1  UNL1        0.0239
     78 H           4.3109   -3.9116    0.0000 H       1  UNL1        0.0239
     79 H           5.1587   -4.1352    0.0000 H       1  UNL1        0.0239
     80 H           5.3824   -3.2874    0.0000 H       1  UNL1        0.0239
     81 H           2.0000   -2.3775    0.0000 H       1  UNL1        0.2098
@<TRIPOS>BOND
     1    27     1    1
     2     1    81    1
     3     2     3    1
     4     2     4    1
     5     2     8    1
     6     2    16    1
     7     3     6    1
     8     3     9    1
     9     3    17    1
    10     4     5    1
    11     4    10    1
    12     4    32    1
    13     5    11    1
    14     5    13    1
    15     5    19    1
    16     6     7    1
    17     6    18    1
    18     6    33    1
    19     7    12    1
    20     7    14    1
    21     7    22    1
    22     8    12    1
    23     8    34    1
    24     8    35    1
    25     9    11    1
    26     9    36    1
    27     9    37    1
    28    10    15    1
    29    10    20    1
    30    10    38    1
    31    11    39    1
    32    11    40    1
    33    12    41    1
    34    12    42    1
    35    13    15    1
    36    13    43    1
    37    13    44    1
    38    14    21    1
    39    14    23    1
    40    14    45    1
    41    15    46    1
    42    15    47    1
    43    16    48    1
    44    16    49    1
    45    16    50    1
    46    17    51    1
    47    17    52    1
    48    17    53    1
    49    18    24    1
    50    18    54    1
    51    18    55    1
    52    19    56    1
    53    19    57    1
    54    19    58    1
    55    20    28    1
    56    20    29    1
    57    20    59    1
    58    21    24    2
    59    21    25    1
    60    22    60    1
    61    22    61    1
    62    22    62    1
    63    23    26    1
    64    23    63    1
    65    23    64    1
    66    24    65    1
    67    25    27    1
    68    25    30    1
    69    25    31    1
    70    26    27    1
    71    26    66    1
    72    26    67    1
    73    27    68    1
    74    28    69    1
    75    28    70    1
    76    28    71    1
    77    29    72    1
    78    29    73    1
    79    29    74    1
    80    30    75    1
    81    30    76    1
    82    30    77    1
    83    31    78    1
    84    31    79    1
    85    31    80    1
