@<TRIPOS>MOLECULE
IMPHY007872
 41 43 0 0 0
SMALL
GASTEIGER

@<TRIPOS>ATOM
      1 O           4.7520   -2.2260    0.0000 O.3     1  UNL1       -0.3887
      2 O           5.2162    2.4699    0.0000 O.3     1  UNL1       -0.4575
      3 O           2.6183   -2.6113    0.0000 O.3     1  UNL1       -0.3892
      4 O           6.9560    2.8281    0.0000 O.2     1  UNL1       -0.2453
      5 C           4.1664   -0.5490    0.0000 C.3     1  UNL1        0.0001
      6 C           3.2654   -0.1151    0.0000 C.3     1  UNL1       -0.0281
      7 C           4.0304   -1.5337    0.0000 C.3     1  UNL1        0.0867
      8 C           3.0429    0.8598    0.0000 C.3     1  UNL1       -0.0370
      9 C           5.0674   -0.1151    0.0000 C.3     1  UNL1       -0.0345
     10 C           2.5803   -0.8354    0.0000 C.3     1  UNL1       -0.0207
     11 C           3.0522   -1.7104    0.0000 C.3     1  UNL1        0.0819
     12 C           5.2899    0.8598    0.0000 C.3     1  UNL1        0.0280
     13 C           3.6664    1.6417    0.0000 C.3     1  UNL1       -0.0122
     14 C           4.6664    1.6417    0.0000 C.3     1  UNL1        0.1106
     15 C           5.0674   -0.9829    0.0000 C.3     1  UNL1       -0.0568
     16 C           2.0680    1.0824    0.0000 C.3     1  UNL1       -0.0620
     17 C           6.2197    1.2115    0.0000 C.2     1  UNL1        0.0361
     18 C           6.1742    2.2046    0.0000 C.2     1  UNL1        0.3353
     19 C           7.0552    0.6621    0.0000 C.2     1  UNL1       -0.0883
     20 H           2.6676    0.0491    0.0000 H       1  UNL1        0.0310
     21 H           4.6161   -1.3302    0.0000 H       1  UNL1        0.0624
     22 H           2.8381    1.4450    0.0000 H       1  UNL1        0.0302
     23 H           5.2053   -0.7195    0.0000 H       1  UNL1        0.0278
     24 H           5.6874   -0.1151    0.0000 H       1  UNL1        0.0278
     25 H           2.1785   -0.3632    0.0000 H       1  UNL1        0.0294
     26 H           2.0686   -1.1854    0.0000 H       1  UNL1        0.0294
     27 H           2.4323   -1.7245    0.0000 H       1  UNL1        0.0619
     28 H           5.7573    0.4525    0.0000 H       1  UNL1        0.0387
     29 H           3.8044    2.2461    0.0000 H       1  UNL1        0.0304
     30 H           3.1078    1.9107    0.0000 H       1  UNL1        0.0304
     31 H           4.3733    2.1880    0.0000 H       1  UNL1        0.0740
     32 H           4.7984   -1.5414    0.0000 H       1  UNL1        0.0236
     33 H           5.6260   -1.2519    0.0000 H       1  UNL1        0.0236
     34 H           5.3364   -0.4243    0.0000 H       1  UNL1        0.0236
     35 H           2.2060    1.6868    0.0000 H       1  UNL1        0.0233
     36 H           1.4635    1.2203    0.0000 H       1  UNL1        0.0233
     37 H           1.9300    0.4779    0.0000 H       1  UNL1        0.0233
     38 H           4.6040   -2.8281    0.0000 H       1  UNL1        0.2099
     39 H           2.0000   -2.6577    0.0000 H       1  UNL1        0.2099
     40 H           7.0192    0.0431    0.0000 H       1  UNL1        0.0540
     41 H           7.6092    0.9404    0.0000 H       1  UNL1        0.0540
@<TRIPOS>BOND
     1     7     1    1
     2     1    38    1
     3     2    14    1
     4     2    18    1
     5    11     3    1
     6     3    39    1
     7     4    18    2
     8     5     6    1
     9     5     7    1
    10     5     9    1
    11     5    15    1
    12     6     8    1
    13     6    10    1
    14     6    20    1
    15     7    11    1
    16     7    21    1
    17     8    13    1
    18     8    16    1
    19     8    22    1
    20     9    12    1
    21     9    23    1
    22     9    24    1
    23    10    11    1
    24    10    25    1
    25    10    26    1
    26    11    27    1
    27    12    14    1
    28    12    17    1
    29    12    28    1
    30    13    14    1
    31    13    29    1
    32    13    30    1
    33    14    31    1
    34    15    32    1
    35    15    33    1
    36    15    34    1
    37    16    35    1
    38    16    36    1
    39    16    37    1
    40    17    18    1
    41    17    19    2
    42    19    40    1
    43    19    41    1
