@<TRIPOS>MOLECULE
IMPHY010387
 93 99 0 0 0
SMALL
GASTEIGER

@<TRIPOS>ATOM
      1 O           6.8671   -3.4895    0.0000 O.3     1  UNL1       -0.3451
      2 O           5.1350   -3.4895    0.0000 O.3     1  UNL1       -0.3405
      3 O           6.8671   -5.4895    0.0000 O.3     1  UNL1       -0.3841
      4 O           5.1350   -6.4895    0.0000 O.3     1  UNL1       -0.3864
      5 O           3.4030   -5.4895    0.0000 O.3     1  UNL1       -0.3865
      6 O           2.5369   -3.9895    0.0000 O.3     1  UNL1       -0.3924
      7 N           8.2902    4.7546    0.0000 N.3     1  UNL1       -0.2956
      8 C           6.8963    2.7074    0.0000 C.3     1  UNL1       -0.0244
      9 C           7.1018    3.6800    0.0000 C.3     1  UNL1       -0.0157
     10 C           7.7643    2.2107    0.0000 C.3     1  UNL1       -0.0305
     11 C           8.0901    3.7869    0.0000 C.3     1  UNL1        0.0146
     12 C           7.7681    1.2107    0.0000 C.3     1  UNL1       -0.0306
     13 C           8.4987    2.8806    0.0000 C.3     1  UNL1       -0.0334
     14 C           6.6995    4.5826    0.0000 C.3     1  UNL1       -0.0235
     15 C           6.9040    0.7074    0.0000 C.3     1  UNL1       -0.0285
     16 C           6.0322    2.2041    0.0000 C.3     1  UNL1       -0.0468
     17 C           7.4324    5.2454    0.0000 C.3     1  UNL1        0.0136
     18 C           6.0361    1.2041    0.0000 C.3     1  UNL1       -0.0486
     19 C           6.8920   -0.3342    0.0000 C.3     1  UNL1       -0.0078
     20 C           6.0284    3.2040    0.0000 C.3     1  UNL1       -0.0590
     21 C           8.6801    0.7074    0.0000 C.3     1  UNL1       -0.0311
     22 C           7.4126    6.2745    0.0000 C.3     1  UNL1       -0.0368
     23 C           9.1875    5.2589    0.0000 C.3     1  UNL1        0.0020
     24 C           5.7211    4.7893    0.0000 C.3     1  UNL1       -0.0607
     25 C           7.7920   -0.8584    0.0000 C.2     1  UNL1       -0.0648
     26 C           9.1914    6.2882    0.0000 C.3     1  UNL1       -0.0310
     27 C           5.9421   -0.8584    0.0000 C.3     1  UNL1       -0.0413
     28 C           8.2980    6.7995    0.0000 C.3     1  UNL1       -0.0479
     29 C           8.6921   -0.3342    0.0000 C.2     1  UNL1       -0.0839
     30 C           6.0279    0.1692    0.0000 C.3     1  UNL1       -0.0556
     31 C           7.8046   -1.9434    0.0000 C.3     1  UNL1       -0.0047
     32 C           5.9295   -1.9434    0.0000 C.3     1  UNL1       -0.0254
     33 C           6.8671   -2.4895    0.0000 C.3     1  UNL1        0.0655
     34 C          10.0575    6.7882    0.0000 C.3     1  UNL1       -0.0613
     35 C           6.0010   -3.9895    0.0000 C.3     1  UNL1        0.1882
     36 C           6.0010   -4.9895    0.0000 C.3     1  UNL1        0.1341
     37 C           5.1350   -5.4895    0.0000 C.3     1  UNL1        0.1141
     38 C           4.2690   -3.9895    0.0000 C.3     1  UNL1        0.1130
     39 C           4.2690   -4.9895    0.0000 C.3     1  UNL1        0.1119
     40 C           3.4030   -3.4895    0.0000 C.3     1  UNL1        0.0730
     41 H           6.2565    3.5905    0.0000 H       1  UNL1        0.0324
     42 H           8.5426    1.8690    0.0000 H       1  UNL1        0.0309
     43 H           8.9350    3.8801    0.0000 H       1  UNL1        0.0466
     44 H           8.4993    1.6442    0.0000 H       1  UNL1        0.0309
     45 H           8.8661    2.3812    0.0000 H       1  UNL1        0.0283
     46 H           9.0340    3.1935    0.0000 H       1  UNL1        0.0283
     47 H           6.5380    5.1812    0.0000 H       1  UNL1        0.0317
     48 H           7.6385    0.2796    0.0000 H       1  UNL1        0.0312
     49 H           5.8179    2.7858    0.0000 H       1  UNL1        0.0271
     50 H           5.4221    2.0940    0.0000 H       1  UNL1        0.0271
     51 H           6.6523    5.5828    0.0000 H       1  UNL1        0.0465
     52 H           5.4251    1.3094    0.0000 H       1  UNL1        0.0268
     53 H           5.8263    0.6206    0.0000 H       1  UNL1        0.0268
     54 H           6.3363    3.7422    0.0000 H       1  UNL1        0.0235
     55 H           5.4902    3.5120    0.0000 H       1  UNL1        0.0235
     56 H           5.7204    2.6659    0.0000 H       1  UNL1        0.0235
     57 H           9.2921    0.6084    0.0000 H       1  UNL1        0.0310
     58 H           8.8824    1.2935    0.0000 H       1  UNL1        0.0310
     59 H           7.1924    6.8541    0.0000 H       1  UNL1        0.0280
     60 H           6.8039    6.1567    0.0000 H       1  UNL1        0.0280
     61 H           9.3943    4.6744    0.0000 H       1  UNL1        0.0429
     62 H           9.7987    5.3627    0.0000 H       1  UNL1        0.0429
     63 H           5.8492    5.3959    0.0000 H       1  UNL1        0.0233
     64 H           5.1145    4.9174    0.0000 H       1  UNL1        0.0233
     65 H           5.5929    4.1827    0.0000 H       1  UNL1        0.0233
     66 H           9.1902    6.9082    0.0000 H       1  UNL1        0.0310
     67 H           5.7398   -0.2724    0.0000 H       1  UNL1        0.0274
     68 H           5.3300   -0.9575    0.0000 H       1  UNL1        0.0274
     69 H           8.6935    7.2770    0.0000 H       1  UNL1        0.0269
     70 H           7.8952    7.2708    0.0000 H       1  UNL1        0.0269
     71 H           9.2314   -0.6400    0.0000 H       1  UNL1        0.0572
     72 H           6.3400    0.7049    0.0000 H       1  UNL1        0.0238
     73 H           5.4922    0.4812    0.0000 H       1  UNL1        0.0238
     74 H           5.7158   -0.3666    0.0000 H       1  UNL1        0.0238
     75 H           8.0204   -2.5246    0.0000 H       1  UNL1        0.0335
     76 H           8.4142   -1.8302    0.0000 H       1  UNL1        0.0335
     77 H           5.3199   -1.8302    0.0000 H       1  UNL1        0.0290
     78 H           5.7137   -2.5246    0.0000 H       1  UNL1        0.0290
     79 H           7.4046   -2.7984    0.0000 H       1  UNL1        0.0600
     80 H          10.3675    6.2513    0.0000 H       1  UNL1        0.0233
     81 H          10.5944    7.0982    0.0000 H       1  UNL1        0.0233
     82 H           9.7475    7.3252    0.0000 H       1  UNL1        0.0233
     83 H           6.0010   -3.3695    0.0000 H       1  UNL1        0.0937
     84 H           6.0010   -5.6095    0.0000 H       1  UNL1        0.0671
     85 H           4.5981   -5.7995    0.0000 H       1  UNL1        0.0648
     86 H           4.2690   -3.3695    0.0000 H       1  UNL1        0.0647
     87 H           3.7320   -4.6795    0.0000 H       1  UNL1        0.0647
     88 H           6.8671   -6.1095    0.0000 H       1  UNL1        0.2101
     89 H           3.8015   -3.0145    0.0000 H       1  UNL1        0.0584
     90 H           3.0044   -3.0145    0.0000 H       1  UNL1        0.0584
     91 H           4.5981   -6.7995    0.0000 H       1  UNL1        0.2100
     92 H           3.4030   -6.1095    0.0000 H       1  UNL1        0.2100
     93 H           2.0000   -3.6795    0.0000 H       1  UNL1        0.2095
@<TRIPOS>BOND
     1    33     1    1
     2    35     1    1
     3     2    35    1
     4     2    38    1
     5    36     3    1
     6     3    88    1
     7    37     4    1
     8     4    91    1
     9    39     5    1
    10     5    92    1
    11     6    40    1
    12     6    93    1
    13     7    11    1
    14     7    17    1
    15     7    23    1
    16     8     9    1
    17     8    10    1
    18     8    16    1
    19     8    20    1
    20     9    11    1
    21     9    14    1
    22     9    41    1
    23    10    12    1
    24    10    13    1
    25    10    42    1
    26    11    13    1
    27    11    43    1
    28    12    15    1
    29    12    21    1
    30    12    44    1
    31    13    45    1
    32    13    46    1
    33    14    17    1
    34    14    24    1
    35    14    47    1
    36    15    18    1
    37    15    19    1
    38    15    48    1
    39    16    18    1
    40    16    49    1
    41    16    50    1
    42    17    22    1
    43    17    51    1
    44    18    52    1
    45    18    53    1
    46    19    25    1
    47    19    27    1
    48    19    30    1
    49    20    54    1
    50    20    55    1
    51    20    56    1
    52    21    29    1
    53    21    57    1
    54    21    58    1
    55    22    28    1
    56    22    59    1
    57    22    60    1
    58    23    26    1
    59    23    61    1
    60    23    62    1
    61    24    63    1
    62    24    64    1
    63    24    65    1
    64    25    29    2
    65    25    31    1
    66    26    28    1
    67    26    34    1
    68    26    66    1
    69    27    32    1
    70    27    67    1
    71    27    68    1
    72    28    69    1
    73    28    70    1
    74    29    71    1
    75    30    72    1
    76    30    73    1
    77    30    74    1
    78    31    33    1
    79    31    75    1
    80    31    76    1
    81    32    33    1
    82    32    77    1
    83    32    78    1
    84    33    79    1
    85    34    80    1
    86    34    81    1
    87    34    82    1
    88    35    36    1
    89    35    83    1
    90    36    37    1
    91    36    84    1
    92    37    39    1
    93    37    85    1
    94    38    39    1
    95    38    40    1
    96    38    86    1
    97    39    87    1
    98    40    89    1
    99    40    90    1
