@<TRIPOS>MOLECULE
IMPHY014399
 46 47 0 0 0
SMALL
GASTEIGER

@<TRIPOS>ATOM
      1 O           3.7320   -0.6550    0.0000 O.3     1  UNL1       -0.5057
      2 O           5.4641   -3.6550    0.0000 O.3     1  UNL1       -0.5064
      3 O           4.5981    0.8450    0.0000 O.2     1  UNL1       -0.2872
      4 O           8.0622    0.8450    0.0000 O.3     1  UNL1       -0.5061
      5 O           8.0622    4.8450    0.0000 O.3     1  UNL1       -0.5033
      6 O           9.7942    3.8450    0.0000 O.3     1  UNL1       -0.5032
      7 C           4.5981   -2.1550    0.0000 C.ar    1  UNL1        0.0398
      8 C           3.7320   -2.6550    0.0000 C.3     1  UNL1       -0.0023
      9 C           4.5981   -1.1550    0.0000 C.ar    1  UNL1        0.1346
     10 C           5.4641   -0.6550    0.0000 C.ar    1  UNL1        0.0635
     11 C           5.4641   -2.6550    0.0000 C.ar    1  UNL1        0.1238
     12 C           3.7320   -3.6550    0.0000 C.2     1  UNL1       -0.0807
     13 C           6.3301   -1.1550    0.0000 C.ar    1  UNL1       -0.0440
     14 C           6.3301   -2.1550    0.0000 C.ar    1  UNL1       -0.0190
     15 C           2.8660   -4.1550    0.0000 C.2     1  UNL1       -0.0793
     16 C           5.4641    0.3450    0.0000 C.2     1  UNL1        0.1896
     17 C           6.3301    0.8450    0.0000 C.2     1  UNL1       -0.0136
     18 C           7.1962    2.3450    0.0000 C.ar    1  UNL1        0.0202
     19 C           6.3301    1.8450    0.0000 C.2     1  UNL1       -0.0474
     20 C           2.8660   -5.1550    0.0000 C.3     1  UNL1       -0.0440
     21 C           2.0000   -3.6550    0.0000 C.3     1  UNL1       -0.0440
     22 C           8.0622    1.8450    0.0000 C.ar    1  UNL1        0.1277
     23 C           7.1962    3.3450    0.0000 C.ar    1  UNL1       -0.0059
     24 C           8.0622    3.8450    0.0000 C.ar    1  UNL1        0.1590
     25 C           8.9282    2.3450    0.0000 C.ar    1  UNL1        0.0255
     26 C           8.9282    3.3450    0.0000 C.ar    1  UNL1        0.1618
     27 H           3.5200   -2.0724    0.0000 H       1  UNL1        0.0358
     28 H           3.1215   -2.7627    0.0000 H       1  UNL1        0.0358
     29 H           4.2690   -3.9650    0.0000 H       1  UNL1        0.0575
     30 H           6.8671   -0.8450    0.0000 H       1  UNL1        0.0627
     31 H           6.8671   -2.4650    0.0000 H       1  UNL1        0.0654
     32 H           6.8671    0.5350    0.0000 H       1  UNL1        0.0656
     33 H           5.7932    2.1550    0.0000 H       1  UNL1        0.0626
     34 H           2.2460   -5.1550    0.0000 H       1  UNL1        0.0274
     35 H           2.8660   -5.7750    0.0000 H       1  UNL1        0.0274
     36 H           3.4860   -5.1550    0.0000 H       1  UNL1        0.0274
     37 H           2.3100   -3.1181    0.0000 H       1  UNL1        0.0274
     38 H           1.4631   -3.3450    0.0000 H       1  UNL1        0.0274
     39 H           1.6900   -4.1919    0.0000 H       1  UNL1        0.0274
     40 H           3.1951   -0.9650    0.0000 H       1  UNL1        0.2922
     41 H           6.6592    3.6550    0.0000 H       1  UNL1        0.0662
     42 H           6.0010   -3.9650    0.0000 H       1  UNL1        0.2921
     43 H           9.4651    2.0350    0.0000 H       1  UNL1        0.0692
     44 H           8.5991    0.5350    0.0000 H       1  UNL1        0.2922
     45 H           7.5252    5.1550    0.0000 H       1  UNL1        0.2923
     46 H          10.3312    3.5350    0.0000 H       1  UNL1        0.2923
@<TRIPOS>BOND
     1     1     9    1
     2     1    40    1
     3     2    11    1
     4     2    42    1
     5     3    16    2
     6     4    22    1
     7     4    44    1
     8     5    24    1
     9     5    45    1
    10     6    26    1
    11     6    46    1
    12     7     8    1
    13     7     9   ar
    14     7    11   ar
    15     8    12    1
    16     8    27    1
    17     8    28    1
    18     9    10   ar
    19    10    13   ar
    20    10    16    1
    21    11    14   ar
    22    12    15    2
    23    12    29    1
    24    13    14   ar
    25    13    30    1
    26    14    31    1
    27    15    20    1
    28    15    21    1
    29    16    17    1
    30    17    19    2
    31    17    32    1
    32    18    19    1
    33    18    22   ar
    34    18    23   ar
    35    19    33    1
    36    20    34    1
    37    20    35    1
    38    20    36    1
    39    21    37    1
    40    21    38    1
    41    21    39    1
    42    22    25   ar
    43    23    24   ar
    44    23    41    1
    45    24    26   ar
    46    25    26   ar
    47    25    43    1
