@<TRIPOS>MOLECULE
IMPHY000808
 94 95 0 0 0
SMALL
GASTEIGER

@<TRIPOS>ATOM
      1 O           3.8660  -10.0950    0.0000 O.3     1  UNL1       -0.3877
      2 O          11.6603   10.4050    0.0000 O.2     1  UNL1       -0.2926
      3 C           3.0000   -7.5950    0.0000 C.3     1  UNL1       -0.0070
      4 C           3.0000   -8.5950    0.0000 C.3     1  UNL1       -0.0141
      5 C           3.8660   -7.0950    0.0000 C.2     1  UNL1       -0.0389
      6 C           3.8660   -9.0950    0.0000 C.3     1  UNL1        0.0747
      7 C           2.0000   -7.5950    0.0000 C.3     1  UNL1       -0.0557
      8 C           2.5000   -6.7290    0.0000 C.3     1  UNL1       -0.0557
      9 C           4.7320   -7.5950    0.0000 C.2     1  UNL1       -0.0483
     10 C           4.7320   -8.5950    0.0000 C.2     1  UNL1       -0.0527
     11 C          12.5263    7.9050    0.0000 C.3     1  UNL1       -0.0026
     12 C           3.8660   -6.0950    0.0000 C.2     1  UNL1       -0.0576
     13 C          12.5263    8.9050    0.0000 C.3     1  UNL1        0.0190
     14 C           5.5981   -7.0950    0.0000 C.3     1  UNL1       -0.0396
     15 C          11.6603    7.4050    0.0000 C.2     1  UNL1       -0.0383
     16 C          13.5263    7.9050    0.0000 C.3     1  UNL1       -0.0554
     17 C          13.0263    7.0390    0.0000 C.3     1  UNL1       -0.0554
     18 C          10.7942    7.9050    0.0000 C.2     1  UNL1       -0.0435
     19 C          11.6603    9.4050    0.0000 C.2     1  UNL1        0.1572
     20 C           4.7320   -5.5950    0.0000 C.2     1  UNL1       -0.0586
     21 C          10.7942    8.9050    0.0000 C.2     1  UNL1       -0.0160
     22 C          11.6603    6.4050    0.0000 C.2     1  UNL1       -0.0575
     23 C           9.9282    7.4050    0.0000 C.3     1  UNL1       -0.0393
     24 C           4.7320   -4.5950    0.0000 C.2     1  UNL1       -0.0504
     25 C          10.7942    5.9050    0.0000 C.2     1  UNL1       -0.0586
     26 C           3.8660   -4.0950    0.0000 C.3     1  UNL1       -0.0397
     27 C           5.5981   -4.0950    0.0000 C.2     1  UNL1       -0.0588
     28 C          10.7942    4.9050    0.0000 C.2     1  UNL1       -0.0504
     29 C          11.6603    4.4050    0.0000 C.3     1  UNL1       -0.0397
     30 C           5.5981   -3.0950    0.0000 C.2     1  UNL1       -0.0613
     31 C           9.9282    4.4050    0.0000 C.2     1  UNL1       -0.0588
     32 C           6.4641   -2.5950    0.0000 C.2     1  UNL1       -0.0588
     33 C           9.9282    3.4050    0.0000 C.2     1  UNL1       -0.0613
     34 C           6.4641   -1.5950    0.0000 C.2     1  UNL1       -0.0504
     35 C           9.0622    2.9050    0.0000 C.2     1  UNL1       -0.0588
     36 C           9.0622    1.9050    0.0000 C.2     1  UNL1       -0.0504
     37 C           5.5981   -1.0950    0.0000 C.3     1  UNL1       -0.0397
     38 C           7.3301   -1.0950    0.0000 C.2     1  UNL1       -0.0588
     39 C           8.1962    1.4050    0.0000 C.2     1  UNL1       -0.0588
     40 C           9.9282    1.4050    0.0000 C.3     1  UNL1       -0.0397
     41 C           7.3301   -0.0950    0.0000 C.2     1  UNL1       -0.0615
     42 C           8.1962    0.4050    0.0000 C.2     1  UNL1       -0.0615
     43 H           2.3894   -8.4873    0.0000 H       1  UNL1        0.0302
     44 H           2.7880   -9.1776    0.0000 H       1  UNL1        0.0302
     45 H           4.4030   -9.4050    0.0000 H       1  UNL1        0.0638
     46 H           3.0369   -6.4190    0.0000 H       1  UNL1        0.0238
     47 H           2.1900   -6.1920    0.0000 H       1  UNL1        0.0238
     48 H           1.9631   -7.0390    0.0000 H       1  UNL1        0.0238
     49 H           2.0000   -6.9750    0.0000 H       1  UNL1        0.0238
     50 H           1.3800   -7.5950    0.0000 H       1  UNL1        0.0238
     51 H           2.0000   -8.2150    0.0000 H       1  UNL1        0.0238
     52 H           5.2690   -8.9050    0.0000 H       1  UNL1        0.0600
     53 H           3.3291   -5.7850    0.0000 H       1  UNL1        0.0621
     54 H          13.1369    8.7973    0.0000 H       1  UNL1        0.0353
     55 H          12.7383    9.4876    0.0000 H       1  UNL1        0.0353
     56 H           5.9081   -7.6319    0.0000 H       1  UNL1        0.0278
     57 H           6.1350   -6.7850    0.0000 H       1  UNL1        0.0278
     58 H           5.2881   -6.5581    0.0000 H       1  UNL1        0.0278
     59 H           4.4030  -10.4050    0.0000 H       1  UNL1        0.2102
     60 H          13.5263    7.2850    0.0000 H       1  UNL1        0.0238
     61 H          14.1463    7.9050    0.0000 H       1  UNL1        0.0238
     62 H          13.5263    8.5250    0.0000 H       1  UNL1        0.0238
     63 H          12.4893    6.7290    0.0000 H       1  UNL1        0.0238
     64 H          13.3363    6.5020    0.0000 H       1  UNL1        0.0238
     65 H          13.5632    7.3490    0.0000 H       1  UNL1        0.0238
     66 H           5.2690   -5.9050    0.0000 H       1  UNL1        0.0620
     67 H          10.2573    9.2150    0.0000 H       1  UNL1        0.0655
     68 H          12.1972    6.0950    0.0000 H       1  UNL1        0.0621
     69 H           9.6182    7.9419    0.0000 H       1  UNL1        0.0278
     70 H           9.3913    7.0950    0.0000 H       1  UNL1        0.0278
     71 H          10.2382    6.8681    0.0000 H       1  UNL1        0.0278
     72 H          10.2573    6.2150    0.0000 H       1  UNL1        0.0620
     73 H           4.1760   -3.5581    0.0000 H       1  UNL1        0.0278
     74 H           3.3291   -3.7850    0.0000 H       1  UNL1        0.0278
     75 H           3.5560   -4.6319    0.0000 H       1  UNL1        0.0278
     76 H           6.1350   -4.4050    0.0000 H       1  UNL1        0.0620
     77 H          11.3503    3.8681    0.0000 H       1  UNL1        0.0278
     78 H          12.1972    4.0950    0.0000 H       1  UNL1        0.0278
     79 H          11.9703    4.9419    0.0000 H       1  UNL1        0.0278
     80 H           5.0611   -2.7850    0.0000 H       1  UNL1        0.0618
     81 H           9.3913    4.7150    0.0000 H       1  UNL1        0.0620
     82 H           7.0010   -2.9050    0.0000 H       1  UNL1        0.0620
     83 H          10.4651    3.0950    0.0000 H       1  UNL1        0.0618
     84 H           8.5252    3.2150    0.0000 H       1  UNL1        0.0620
     85 H           5.9081   -0.5581    0.0000 H       1  UNL1        0.0278
     86 H           5.0611   -0.7850    0.0000 H       1  UNL1        0.0278
     87 H           5.2881   -1.6319    0.0000 H       1  UNL1        0.0278
     88 H           7.8671   -1.4050    0.0000 H       1  UNL1        0.0620
     89 H           7.6592    1.7150    0.0000 H       1  UNL1        0.0620
     90 H           9.6182    0.8681    0.0000 H       1  UNL1        0.0278
     91 H          10.4651    1.0950    0.0000 H       1  UNL1        0.0278
     92 H          10.2382    1.9419    0.0000 H       1  UNL1        0.0278
     93 H           6.7932    0.2150    0.0000 H       1  UNL1        0.0618
     94 H           8.7331    0.0950    0.0000 H       1  UNL1        0.0618
@<TRIPOS>BOND
     1     6     1    1
     2     1    59    1
     3     2    19    2
     4     3     4    1
     5     3     5    1
     6     3     7    1
     7     3     8    1
     8     4     6    1
     9     4    43    1
    10     4    44    1
    11     5     9    1
    12     5    12    2
    13     6    10    1
    14     6    45    1
    15     7    49    1
    16     7    50    1
    17     7    51    1
    18     8    46    1
    19     8    47    1
    20     8    48    1
    21     9    10    2
    22     9    14    1
    23    10    52    1
    24    11    13    1
    25    11    15    1
    26    11    16    1
    27    11    17    1
    28    12    20    1
    29    12    53    1
    30    13    19    1
    31    13    54    1
    32    13    55    1
    33    14    56    1
    34    14    57    1
    35    14    58    1
    36    15    18    1
    37    15    22    2
    38    16    60    1
    39    16    61    1
    40    16    62    1
    41    17    63    1
    42    17    64    1
    43    17    65    1
    44    18    21    2
    45    18    23    1
    46    19    21    1
    47    20    24    2
    48    20    66    1
    49    21    67    1
    50    22    25    1
    51    22    68    1
    52    23    69    1
    53    23    70    1
    54    23    71    1
    55    24    26    1
    56    24    27    1
    57    25    28    2
    58    25    72    1
    59    26    73    1
    60    26    74    1
    61    26    75    1
    62    27    30    2
    63    27    76    1
    64    28    29    1
    65    28    31    1
    66    29    77    1
    67    29    78    1
    68    29    79    1
    69    30    32    1
    70    30    80    1
    71    31    33    2
    72    31    81    1
    73    32    34    2
    74    32    82    1
    75    33    35    1
    76    33    83    1
    77    34    37    1
    78    34    38    1
    79    35    36    2
    80    35    84    1
    81    36    39    1
    82    36    40    1
    83    37    85    1
    84    37    86    1
    85    37    87    1
    86    38    41    2
    87    38    88    1
    88    39    42    2
    89    39    89    1
    90    40    90    1
    91    40    91    1
    92    40    92    1
    93    41    42    1
    94    41    93    1
    95    42    94    1
