@<TRIPOS>MOLECULE
IMPHY009479
 53 55 0 0 0
SMALL
GASTEIGER

@<TRIPOS>ATOM
      1 O           8.1898   -0.0101    0.0000 O.3     1  UNL1       -0.3866
      2 O           2.3038   -2.4249    0.0000 O.3     1  UNL1       -0.4802
      3 O           3.8137   -3.2735    0.0000 O.2     1  UNL1       -0.2504
      4 C           4.6876   -0.0069    0.0000 C.3     1  UNL1       -0.0214
      5 C           4.6876   -1.0069    0.0000 C.3     1  UNL1       -0.0162
      6 C           5.5536    0.4931    0.0000 C.3     1  UNL1       -0.0117
      7 C           3.7937   -1.5416    0.0000 C.3     1  UNL1        0.0684
      8 C           3.7937    0.5277    0.0000 C.3     1  UNL1       -0.0468
      9 C           6.4196   -0.0069    0.0000 C.2     1  UNL1       -0.0409
     10 C           5.5536   -1.5069    0.0000 C.3     1  UNL1       -0.0301
     11 C           5.5376    1.5346    0.0000 C.3     1  UNL1       -0.0451
     12 C           2.8876   -1.0278    0.0000 C.3     1  UNL1       -0.0372
     13 C           2.8876    0.0139    0.0000 C.3     1  UNL1       -0.0515
     14 C           4.6876    0.9931    0.0000 C.3     1  UNL1       -0.0587
     15 C           7.3296    0.4999    0.0000 C.3     1  UNL1        0.0853
     16 C           7.3377    1.5415    0.0000 C.3     1  UNL1        0.0155
     17 C           6.4356    2.0623    0.0000 C.3     1  UNL1       -0.0410
     18 C           6.4196   -1.0069    0.0000 C.2     1  UNL1       -0.0817
     19 C           4.3036   -2.4018    0.0000 C.3     1  UNL1       -0.0491
     20 C           3.3037   -2.4134    0.0000 C.2     1  UNL1        0.3110
     21 C           8.3377    1.5376    0.0000 C.3     1  UNL1       -0.0534
     22 C           7.8410    2.4056    0.0000 C.2     1  UNL1       -0.0824
     23 C           7.3444    3.2735    0.0000 C.2     1  UNL1       -0.1020
     24 H           4.6941   -1.8569    0.0000 H       1  UNL1        0.0320
     25 H           6.2864    0.9237    0.0000 H       1  UNL1        0.0352
     26 H           4.1982    0.9975    0.0000 H       1  UNL1        0.0271
     27 H           3.4000    1.0067    0.0000 H       1  UNL1        0.0271
     28 H           5.1551   -1.9819    0.0000 H       1  UNL1        0.0311
     29 H           5.9521   -1.9819    0.0000 H       1  UNL1        0.0311
     30 H           5.3195    2.1150    0.0000 H       1  UNL1        0.0271
     31 H           4.9284    1.4191    0.0000 H       1  UNL1        0.0271
     32 H           2.2767   -0.9217    0.0000 H       1  UNL1        0.0276
     33 H           2.6785   -1.6114    0.0000 H       1  UNL1        0.0276
     34 H           2.6785    0.5976    0.0000 H       1  UNL1        0.0266
     35 H           2.2767   -0.0922    0.0000 H       1  UNL1        0.0266
     36 H           5.3076    0.9931    0.0000 H       1  UNL1        0.0235
     37 H           4.6876    1.6131    0.0000 H       1  UNL1        0.0235
     38 H           4.0676    0.9931    0.0000 H       1  UNL1        0.0235
     39 H           7.8696    0.8047    0.0000 H       1  UNL1        0.0649
     40 H           6.8329    2.5383    0.0000 H       1  UNL1        0.0275
     41 H           6.0346    2.5352    0.0000 H       1  UNL1        0.0275
     42 H           6.9566   -1.3169    0.0000 H       1  UNL1        0.0573
     43 H           3.7703   -2.7180    0.0000 H       1  UNL1        0.0240
     44 H           4.6198   -2.9351    0.0000 H       1  UNL1        0.0240
     45 H           4.8370   -2.0856    0.0000 H       1  UNL1        0.0240
     46 H           8.3353    0.9177    0.0000 H       1  UNL1        0.0239
     47 H           8.9577    1.5353    0.0000 H       1  UNL1        0.0239
     48 H           8.3401    2.1576    0.0000 H       1  UNL1        0.0239
     49 H           8.4610    2.4032    0.0000 H       1  UNL1        0.0573
     50 H           8.1827   -0.6300    0.0000 H       1  UNL1        0.2103
     51 H           2.0000   -2.9654    0.0000 H       1  UNL1        0.2951
     52 H           7.6564    3.8093    0.0000 H       1  UNL1        0.0532
     53 H           6.7244    3.2759    0.0000 H       1  UNL1        0.0532
@<TRIPOS>BOND
     1    15     1    1
     2     1    50    1
     3     2    20    1
     4     2    51    1
     5     3    20    2
     6     4     5    1
     7     4     6    1
     8     4     8    1
     9     4    14    1
    10     5     7    1
    11     5    10    1
    12     5    24    1
    13     6     9    1
    14     6    11    1
    15     6    25    1
    16     7    12    1
    17     7    19    1
    18     7    20    1
    19     8    13    1
    20     8    26    1
    21     8    27    1
    22     9    15    1
    23     9    18    2
    24    10    18    1
    25    10    28    1
    26    10    29    1
    27    11    17    1
    28    11    30    1
    29    11    31    1
    30    12    13    1
    31    12    32    1
    32    12    33    1
    33    13    34    1
    34    13    35    1
    35    14    36    1
    36    14    37    1
    37    14    38    1
    38    15    16    1
    39    15    39    1
    40    16    17    1
    41    16    21    1
    42    16    22    1
    43    17    40    1
    44    17    41    1
    45    18    42    1
    46    19    43    1
    47    19    44    1
    48    19    45    1
    49    21    46    1
    50    21    47    1
    51    21    48    1
    52    22    23    2
    53    22    49    1
    54    23    52    1
    55    23    53    1
