@<TRIPOS>MOLECULE
IMPHY004202
 155 164 0 0 0
SMALL
GASTEIGER

@<TRIPOS>ATOM
      1 O           4.4180    5.4989    0.0000 O.3     1  UNL1       -0.3448
      2 O           4.5293    7.4813    0.0000 O.3     1  UNL1       -0.3480
      3 O          12.2691    2.6093    0.0000 O.3     1  UNL1       -0.3429
      4 O          12.2610    4.7010    0.0000 O.3     1  UNL1       -0.3892
      5 O          11.4031    1.1093    0.0000 O.3     1  UNL1       -0.3405
      6 O          14.0011    1.6093    0.0000 O.3     1  UNL1       -0.3841
      7 O          14.0011   -0.3907    0.0000 O.3     1  UNL1       -0.3864
      8 O          12.2691   -1.3907    0.0000 O.3     1  UNL1       -0.3401
      9 O           9.6710    0.1093    0.0000 O.3     1  UNL1       -0.3924
     10 O          10.5370   -1.3907    0.0000 O.3     1  UNL1       -0.3405
     11 O          12.2691   -3.3907    0.0000 O.3     1  UNL1       -0.3377
     12 O          10.5370   -4.3907    0.0000 O.3     1  UNL1       -0.3401
     13 O           8.8050   -3.3907    0.0000 O.3     1  UNL1       -0.3865
     14 O          12.2691   -5.1227    0.0000 O.3     1  UNL1       -0.3405
     15 O           8.8050   -0.3907    0.0000 O.3     1  UNL1       -0.3924
     16 O           8.8050   -4.3907    0.0000 O.3     1  UNL1       -0.3461
     17 O          14.2691   -3.3907    0.0000 O.3     1  UNL1       -0.3841
     18 O          15.2691   -5.1227    0.0000 O.3     1  UNL1       -0.3864
     19 O          10.5370   -6.3907    0.0000 O.3     1  UNL1       -0.3841
     20 O          14.2692   -6.8547    0.0000 O.3     1  UNL1       -0.3865
     21 O           8.8050   -7.3907    0.0000 O.3     1  UNL1       -0.3864
     22 O           7.0729   -6.3907    0.0000 O.3     1  UNL1       -0.3869
     23 O          12.7691   -7.7208    0.0000 O.3     1  UNL1       -0.3924
     24 C           6.8878    5.6824    0.0000 C.3     1  UNL1       -0.0233
     25 C           6.8840    4.6824    0.0000 C.3     1  UNL1       -0.0298
     26 C           7.7480    4.1791    0.0000 C.3     1  UNL1       -0.0343
     27 C           5.9428    5.9908    0.0000 C.3     1  UNL1       -0.0015
     28 C           8.6160    4.6758    0.0000 C.3     1  UNL1       -0.0322
     29 C           9.5240    4.1654    0.0000 C.3     1  UNL1       -0.0237
     30 C           5.3561    5.1883    0.0000 C.3     1  UNL1        0.0660
     31 C           5.9366    4.3814    0.0000 C.3     1  UNL1       -0.0226
     32 C           7.7558    6.1791    0.0000 C.3     1  UNL1       -0.0467
     33 C           8.6198    5.6758    0.0000 C.3     1  UNL1       -0.0489
     34 C           5.3622    6.7905    0.0000 C.3     1  UNL1        0.0160
     35 C           9.5280    3.1238    0.0000 C.3     1  UNL1       -0.0329
     36 C           7.7280    3.1377    0.0000 C.3     1  UNL1       -0.0494
     37 C           4.4218    6.4871    0.0000 C.3     1  UNL1        0.1732
     38 C           8.6240    2.6064    0.0000 C.3     1  UNL1       -0.0494
     39 C           6.8917    6.6824    0.0000 C.3     1  UNL1       -0.0590
     40 C          10.4530    4.7259    0.0000 C.3     1  UNL1       -0.0185
     41 C          10.4613    2.5705    0.0000 C.3     1  UNL1       -0.0207
     42 C           9.5202    5.1654    0.0000 C.3     1  UNL1       -0.0590
     43 C          11.3989    4.1943    0.0000 C.3     1  UNL1        0.0819
     44 C          11.4031    3.1093    0.0000 C.3     1  UNL1        0.0879
     45 C           5.6725    7.7412    0.0000 C.3     1  UNL1       -0.0572
     46 C           3.5070    6.0831    0.0000 C.3     1  UNL1        0.0020
     47 C           2.6998    6.6733    0.0000 C.3     1  UNL1       -0.0435
     48 C           3.7220    8.0715    0.0000 C.3     1  UNL1        0.0535
     49 C           2.8073    7.6675    0.0000 C.3     1  UNL1       -0.0201
     50 C           2.0000    8.2577    0.0000 C.3     1  UNL1       -0.0603
     51 C          12.2691    1.6093    0.0000 C.3     1  UNL1        0.1883
     52 C          13.1351    1.1093    0.0000 C.3     1  UNL1        0.1341
     53 C          13.1351    0.1093    0.0000 C.3     1  UNL1        0.1144
     54 C          11.4031    0.1093    0.0000 C.3     1  UNL1        0.1134
     55 C          12.2691   -0.3907    0.0000 C.3     1  UNL1        0.1184
     56 C          10.5370   -0.3907    0.0000 C.3     1  UNL1        0.0730
     57 C          11.4031   -1.8907    0.0000 C.3     1  UNL1        0.1888
     58 C          11.4031   -2.8907    0.0000 C.3     1  UNL1        0.1410
     59 C          10.5370   -3.3907    0.0000 C.3     1  UNL1        0.1209
     60 C           9.6710   -1.8907    0.0000 C.3     1  UNL1        0.1130
     61 C           9.6710   -2.8907    0.0000 C.3     1  UNL1        0.1123
     62 C           8.8050   -1.3907    0.0000 C.3     1  UNL1        0.0730
     63 C          12.7692   -4.2566    0.0000 C.3     1  UNL1        0.1885
     64 C           9.6710   -4.8907    0.0000 C.3     1  UNL1        0.1880
     65 C          13.7691   -4.2567    0.0000 C.3     1  UNL1        0.1341
     66 C          14.2691   -5.1227    0.0000 C.3     1  UNL1        0.1141
     67 C           9.6710   -5.8907    0.0000 C.3     1  UNL1        0.1341
     68 C          12.7692   -5.9887    0.0000 C.3     1  UNL1        0.1130
     69 C          13.7692   -5.9887    0.0000 C.3     1  UNL1        0.1119
     70 C           8.8050   -6.3907    0.0000 C.3     1  UNL1        0.1137
     71 C           7.9390   -4.8907    0.0000 C.3     1  UNL1        0.0792
     72 C           7.9390   -5.8907    0.0000 C.3     1  UNL1        0.1069
     73 C          12.2691   -6.8548    0.0000 C.3     1  UNL1        0.0730
     74 H           6.7908    3.8376    0.0000 H       1  UNL1        0.0310
     75 H           7.0071    3.7626    0.0000 H       1  UNL1        0.0306
     76 H           6.4430    6.6781    0.0000 H       1  UNL1        0.0335
     77 H           9.3505    5.1036    0.0000 H       1  UNL1        0.0309
     78 H           4.8529    4.5033    0.0000 H       1  UNL1        0.0600
     79 H           5.3980    4.0742    0.0000 H       1  UNL1        0.0293
     80 H           6.1854    3.8135    0.0000 H       1  UNL1        0.0293
     81 H           8.1561    6.6525    0.0000 H       1  UNL1        0.0271
     82 H           7.3591    6.6556    0.0000 H       1  UNL1        0.0271
     83 H           9.2300    5.5657    0.0000 H       1  UNL1        0.0268
     84 H           8.8342    6.2575    0.0000 H       1  UNL1        0.0268
     85 H           5.9747    6.8870    0.0000 H       1  UNL1        0.0354
     86 H           9.5215    2.2738    0.0000 H       1  UNL1        0.0307
     87 H           7.1193    3.2555    0.0000 H       1  UNL1        0.0268
     88 H           7.5077    2.5581    0.0000 H       1  UNL1        0.0268
     89 H           8.2212    2.1351    0.0000 H       1  UNL1        0.0268
     90 H           9.0194    2.1290    0.0000 H       1  UNL1        0.0268
     91 H           7.5117    6.6800    0.0000 H       1  UNL1        0.0235
     92 H           6.8941    7.3024    0.0000 H       1  UNL1        0.0235
     93 H           6.2717    6.6848    0.0000 H       1  UNL1        0.0235
     94 H          10.8448    5.2064    0.0000 H       1  UNL1        0.0296
     95 H          10.0466    5.1941    0.0000 H       1  UNL1        0.0296
     96 H          10.0586    2.0991    0.0000 H       1  UNL1        0.0294
     97 H          10.8568    2.0930    0.0000 H       1  UNL1        0.0294
     98 H          10.1402    5.1678    0.0000 H       1  UNL1        0.0235
     99 H           9.5178    5.7854    0.0000 H       1  UNL1        0.0235
    100 H           8.9002    5.1630    0.0000 H       1  UNL1        0.0235
    101 H          11.3929    4.8143    0.0000 H       1  UNL1        0.0619
    102 H          11.9394    3.4204    0.0000 H       1  UNL1        0.0623
    103 H           6.2619    7.5488    0.0000 H       1  UNL1        0.0234
    104 H           5.8648    8.3306    0.0000 H       1  UNL1        0.0234
    105 H           5.0830    7.9335    0.0000 H       1  UNL1        0.0234
    106 H           3.0597    5.6538    0.0000 H       1  UNL1        0.0317
    107 H           3.8522    5.5681    0.0000 H       1  UNL1        0.0317
    108 H           2.1043    6.8460    0.0000 H       1  UNL1        0.0270
    109 H           2.4263    6.1169    0.0000 H       1  UNL1        0.0270
    110 H           4.1693    8.5009    0.0000 H       1  UNL1        0.0563
    111 H           3.3768    8.5866    0.0000 H       1  UNL1        0.0563
    112 H           2.8739    8.2839    0.0000 H       1  UNL1        0.0320
    113 H          12.2562    5.3210    0.0000 H       1  UNL1        0.2099
    114 H           2.3659    8.7582    0.0000 H       1  UNL1        0.0233
    115 H           1.4995    8.6236    0.0000 H       1  UNL1        0.0233
    116 H           1.6341    7.7572    0.0000 H       1  UNL1        0.0233
    117 H          11.7322    1.9193    0.0000 H       1  UNL1        0.0938
    118 H          13.6721    0.7993    0.0000 H       1  UNL1        0.0671
    119 H          13.1351   -0.5107    0.0000 H       1  UNL1        0.0648
    120 H          10.8661    0.4193    0.0000 H       1  UNL1        0.0647
    121 H          11.7322   -0.7007    0.0000 H       1  UNL1        0.0651
    122 H          14.0011    2.2293    0.0000 H       1  UNL1        0.2101
    123 H          10.1385   -0.8656    0.0000 H       1  UNL1        0.0584
    124 H          10.9356   -0.8656    0.0000 H       1  UNL1        0.0584
    125 H          14.5381   -0.0807    0.0000 H       1  UNL1        0.2100
    126 H          11.9400   -2.2007    0.0000 H       1  UNL1        0.0938
    127 H           9.6710    0.7293    0.0000 H       1  UNL1        0.2095
    128 H          11.4031   -3.5107    0.0000 H       1  UNL1        0.0675
    129 H          11.0740   -3.7007    0.0000 H       1  UNL1        0.0651
    130 H           9.6710   -1.2707    0.0000 H       1  UNL1        0.0647
    131 H           9.6710   -3.5107    0.0000 H       1  UNL1        0.0647
    132 H           8.1944   -1.2830    0.0000 H       1  UNL1        0.0584
    133 H           8.5929   -1.9733    0.0000 H       1  UNL1        0.0584
    134 H          13.0792   -3.7197    0.0000 H       1  UNL1        0.0938
    135 H           8.2680   -3.0807    0.0000 H       1  UNL1        0.2100
    136 H          10.2080   -5.2007    0.0000 H       1  UNL1        0.0937
    137 H          14.3891   -4.2567    0.0000 H       1  UNL1        0.0671
    138 H          14.5791   -5.6596    0.0000 H       1  UNL1        0.0648
    139 H           9.6710   -6.5107    0.0000 H       1  UNL1        0.0671
    140 H           8.2680   -0.0807    0.0000 H       1  UNL1        0.2095
    141 H          12.1492   -5.9887    0.0000 H       1  UNL1        0.0647
    142 H          14.3892   -5.9887    0.0000 H       1  UNL1        0.0647
    143 H           8.2680   -6.7007    0.0000 H       1  UNL1        0.0647
    144 H          14.8891   -3.3907    0.0000 H       1  UNL1        0.2101
    145 H           7.7269   -4.3081    0.0000 H       1  UNL1        0.0587
    146 H           7.3284   -4.9983    0.0000 H       1  UNL1        0.0587
    147 H           7.4020   -5.5807    0.0000 H       1  UNL1        0.0643
    148 H          11.7942   -6.4562    0.0000 H       1  UNL1        0.0584
    149 H          11.7942   -7.2533    0.0000 H       1  UNL1        0.0584
    150 H          15.5791   -4.5858    0.0000 H       1  UNL1        0.2100
    151 H          10.5370   -7.0107    0.0000 H       1  UNL1        0.2101
    152 H          14.8891   -6.8548    0.0000 H       1  UNL1        0.2100
    153 H           8.2680   -7.7007    0.0000 H       1  UNL1        0.2100
    154 H           6.5360   -6.0807    0.0000 H       1  UNL1        0.2100
    155 H          12.4591   -8.2577    0.0000 H       1  UNL1        0.2095
@<TRIPOS>BOND
     1     1    30    1
     2    37     1    1
     3     2    37    1
     4     2    48    1
     5    44     3    1
     6    51     3    1
     7    43     4    1
     8     4   113    1
     9     5    51    1
    10     5    54    1
    11    52     6    1
    12     6   122    1
    13    53     7    1
    14     7   125    1
    15    55     8    1
    16    57     8    1
    17     9    56    1
    18     9   127    1
    19    10    57    1
    20    10    60    1
    21    58    11    1
    22    63    11    1
    23    59    12    1
    24    64    12    1
    25    61    13    1
    26    13   135    1
    27    14    63    1
    28    14    68    1
    29    15    62    1
    30    15   140    1
    31    16    64    1
    32    16    71    1
    33    65    17    1
    34    17   144    1
    35    66    18    1
    36    18   150    1
    37    67    19    1
    38    19   151    1
    39    69    20    1
    40    20   152    1
    41    70    21    1
    42    21   153    1
    43    72    22    1
    44    22   154    1
    45    23    73    1
    46    23   155    1
    47    24    25    1
    48    24    27    1
    49    24    32    1
    50    24    39    1
    51    25    26    1
    52    25    31    1
    53    25    74    1
    54    26    28    1
    55    26    36    1
    56    26    75    1
    57    27    30    1
    58    27    34    1
    59    27    76    1
    60    28    29    1
    61    28    33    1
    62    28    77    1
    63    29    35    1
    64    29    40    1
    65    29    42    1
    66    30    31    1
    67    30    78    1
    68    31    79    1
    69    31    80    1
    70    32    33    1
    71    32    81    1
    72    32    82    1
    73    33    83    1
    74    33    84    1
    75    34    37    1
    76    34    45    1
    77    34    85    1
    78    35    38    1
    79    35    41    1
    80    35    86    1
    81    36    38    1
    82    36    87    1
    83    36    88    1
    84    37    46    1
    85    38    89    1
    86    38    90    1
    87    39    91    1
    88    39    92    1
    89    39    93    1
    90    40    43    1
    91    40    94    1
    92    40    95    1
    93    41    44    1
    94    41    96    1
    95    41    97    1
    96    42    98    1
    97    42    99    1
    98    42   100    1
    99    43    44    1
   100    43   101    1
   101    44   102    1
   102    45   103    1
   103    45   104    1
   104    45   105    1
   105    46    47    1
   106    46   106    1
   107    46   107    1
   108    47    49    1
   109    47   108    1
   110    47   109    1
   111    48    49    1
   112    48   110    1
   113    48   111    1
   114    49    50    1
   115    49   112    1
   116    50   114    1
   117    50   115    1
   118    50   116    1
   119    51    52    1
   120    51   117    1
   121    52    53    1
   122    52   118    1
   123    53    55    1
   124    53   119    1
   125    54    55    1
   126    54    56    1
   127    54   120    1
   128    55   121    1
   129    56   123    1
   130    56   124    1
   131    57    58    1
   132    57   126    1
   133    58    59    1
   134    58   128    1
   135    59    61    1
   136    59   129    1
   137    60    61    1
   138    60    62    1
   139    60   130    1
   140    61   131    1
   141    62   132    1
   142    62   133    1
   143    63    65    1
   144    63   134    1
   145    64    67    1
   146    64   136    1
   147    65    66    1
   148    65   137    1
   149    66    69    1
   150    66   138    1
   151    67    70    1
   152    67   139    1
   153    68    69    1
   154    68    73    1
   155    68   141    1
   156    69   142    1
   157    70    72    1
   158    70   143    1
   159    71    72    1
   160    71   145    1
   161    71   146    1
   162    72   147    1
   163    73   148    1
   164    73   149    1
