@<TRIPOS>MOLECULE
IMPHY013584
 35 38 0 0 0
SMALL
GASTEIGER

@<TRIPOS>ATOM
      1 O           2.3597   -0.4238    0.0000 O.3     1  UNL1       -0.3568
      2 O           4.1473    1.1857    0.0000 O.3     1  UNL1       -0.3379
      3 O           2.7624    2.3072    0.0000 O.3     1  UNL1       -0.3647
      4 O           4.2518   -1.8088    0.0000 O.3     1  UNL1       -0.4946
      5 O           7.7438   -1.8434    0.0000 O.2     1  UNL1       -0.4220
      6 O           9.5140   -1.8329    0.0000 O.2     1  UNL1       -0.2452
      7 C           2.6691    0.5276    0.0000 C.3     1  UNL1        0.1462
      8 C           3.3383   -0.2155    0.0000 C.3     1  UNL1        0.1234
      9 C           4.2518    0.1912    0.0000 C.3     1  UNL1        0.1191
     10 C           3.1691    1.3936    0.0000 C.3     1  UNL1        0.1886
     11 C           2.0000    1.2708    0.0000 C.3     1  UNL1       -0.0284
     12 C           5.1178   -0.3088    0.0000 C.ar    1  UNL1        0.0262
     13 C           5.1178   -1.3088    0.0000 C.ar    1  UNL1        0.1293
     14 C           5.9839    0.1912    0.0000 C.ar    1  UNL1       -0.0419
     15 C           6.8499   -0.3088    0.0000 C.ar    1  UNL1        0.0182
     16 C           5.9839   -1.8088    0.0000 C.ar    1  UNL1        0.0234
     17 C           6.8499   -1.3088    0.0000 C.ar    1  UNL1        0.1425
     18 C           7.7438    0.2259    0.0000 C.ar    1  UNL1       -0.0443
     19 C           4.2518   -2.8088    0.0000 C.3     1  UNL1        0.0788
     20 C           8.6499   -0.2880    0.0000 C.ar    1  UNL1        0.0236
     21 C           8.6499   -1.3296    0.0000 C.ar    1  UNL1        0.3372
     22 H           3.6010   -1.0239    0.0000 H       1  UNL1        0.0656
     23 H           4.9647    0.6542    0.0000 H       1  UNL1        0.0676
     24 H           2.5500    1.4261    0.0000 H       1  UNL1        0.0939
     25 H           2.4608    1.6856    0.0000 H       1  UNL1        0.0260
     26 H           1.5851    1.7315    0.0000 H       1  UNL1        0.0260
     27 H           1.5392    0.8559    0.0000 H       1  UNL1        0.0260
     28 H           3.1268    2.8088    0.0000 H       1  UNL1        0.2126
     29 H           5.9839    0.8112    0.0000 H       1  UNL1        0.0629
     30 H           5.9839   -2.4288    0.0000 H       1  UNL1        0.0691
     31 H           7.7367    0.8458    0.0000 H       1  UNL1        0.0627
     32 H           3.6318   -2.8088    0.0000 H       1  UNL1        0.0660
     33 H           4.2518   -3.4288    0.0000 H       1  UNL1        0.0660
     34 H           4.8718   -2.8088    0.0000 H       1  UNL1        0.0660
     35 H           9.1856    0.0241    0.0000 H       1  UNL1        0.0689
@<TRIPOS>BOND
     1     1     7    1
     2     1     8    1
     3     2     9    1
     4     2    10    1
     5    10     3    1
     6     3    28    1
     7     4    13    1
     8     4    19    1
     9     5    17   ar
    10     5    21   ar
    11     6    21    2
    12     7     8    1
    13     7    10    1
    14     7    11    1
    15     8     9    1
    16     8    22    1
    17     9    12    1
    18     9    23    1
    19    10    24    1
    20    11    25    1
    21    11    26    1
    22    11    27    1
    23    12    13   ar
    24    12    14   ar
    25    13    16   ar
    26    14    15   ar
    27    14    29    1
    28    15    17   ar
    29    15    18   ar
    30    16    17   ar
    31    16    30    1
    32    18    20   ar
    33    18    31    1
    34    19    32    1
    35    19    33    1
    36    19    34    1
    37    20    21   ar
    38    20    35    1
