@<TRIPOS>MOLECULE
IMPHY007359
 27 27 0 0 0
SMALL
GASTEIGER

@<TRIPOS>ATOM
      1 O           4.7320    1.7500    0.0000 O.2     1  UNL1       -0.3004
      2 C           3.0000   -0.2500    0.0000 C.3     1  UNL1       -0.0217
      3 C           3.8660    0.2500    0.0000 C.3     1  UNL1        0.0404
      4 C           3.0000   -1.2500    0.0000 C.3     1  UNL1       -0.0435
      5 C           3.8660   -1.7500    0.0000 C.3     1  UNL1       -0.0340
      6 C           4.7320   -0.2500    0.0000 C.2     1  UNL1       -0.0661
      7 C           2.0000   -0.2500    0.0000 C.3     1  UNL1       -0.0589
      8 C           2.5000    0.6160    0.0000 C.3     1  UNL1       -0.0589
      9 C           4.7320   -1.2500    0.0000 C.2     1  UNL1       -0.0843
     10 C           3.8660    1.2500    0.0000 C.2     1  UNL1        0.1278
     11 C           5.5981    0.2500    0.0000 C.3     1  UNL1       -0.0431
     12 H           4.4030    0.5600    0.0000 H       1  UNL1        0.0425
     13 H           2.3894   -1.1423    0.0000 H       1  UNL1        0.0274
     14 H           2.7880   -1.8326    0.0000 H       1  UNL1        0.0274
     15 H           3.4675   -2.2250    0.0000 H       1  UNL1        0.0308
     16 H           4.2646   -2.2250    0.0000 H       1  UNL1        0.0308
     17 H           2.0000    0.3700    0.0000 H       1  UNL1        0.0235
     18 H           1.3800   -0.2500    0.0000 H       1  UNL1        0.0235
     19 H           2.0000   -0.8700    0.0000 H       1  UNL1        0.0235
     20 H           3.0369    0.9260    0.0000 H       1  UNL1        0.0235
     21 H           2.1900    1.1530    0.0000 H       1  UNL1        0.0235
     22 H           1.9631    0.3060    0.0000 H       1  UNL1        0.0235
     23 H           5.2690   -1.5600    0.0000 H       1  UNL1        0.0572
     24 H           3.3291    1.5600    0.0000 H       1  UNL1        0.1033
     25 H           5.9081   -0.2869    0.0000 H       1  UNL1        0.0275
     26 H           6.1350    0.5600    0.0000 H       1  UNL1        0.0275
     27 H           5.2881    0.7869    0.0000 H       1  UNL1        0.0275
@<TRIPOS>BOND
     1     1    10    2
     2     2     3    1
     3     2     4    1
     4     2     7    1
     5     2     8    1
     6     3     6    1
     7     3    10    1
     8     3    12    1
     9     4     5    1
    10     4    13    1
    11     4    14    1
    12     5     9    1
    13     5    15    1
    14     5    16    1
    15     6     9    2
    16     6    11    1
    17     7    17    1
    18     7    18    1
    19     7    19    1
    20     8    20    1
    21     8    21    1
    22     8    22    1
    23     9    23    1
    24    10    24    1
    25    11    25    1
    26    11    26    1
    27    11    27    1
