@<TRIPOS>MOLECULE
IMPHY001017
 74 78 0 0 0
SMALL
GASTEIGER

@<TRIPOS>ATOM
      1 O           6.5862   -1.9676    0.0000 O.3     1  UNL1       -0.4641
      2 O          12.0791   -2.0699    0.0000 O.3     1  UNL1       -0.4796
      3 O           8.3074   -2.4288    0.0000 O.2     1  UNL1       -0.2505
      4 O          10.2669   -3.2651    0.0000 O.3     1  UNL1       -0.4914
      5 O          11.7220    1.2344    0.0000 O.3     1  UNL1       -0.3943
      6 O           4.2294    3.1941    0.0000 O.3     1  UNL1       -0.4914
      7 O          15.6628   -2.9972    0.0000 O.3     1  UNL1       -0.4914
      8 O           2.7431    1.8558    0.0000 O.3     1  UNL1       -0.4915
      9 O          16.6628   -1.2651    0.0000 O.3     1  UNL1       -0.5033
     10 C           7.6688   -0.7651    0.0000 C.3     1  UNL1        0.0666
     11 C           6.7553   -0.3584    0.0000 C.3     1  UNL1        0.0105
     12 C           8.5348   -0.2651    0.0000 C.3     1  UNL1       -0.0142
     13 C          12.0791   -0.4604    0.0000 C.3     1  UNL1        0.0520
     14 C           6.0862   -1.1015    0.0000 C.3     1  UNL1        0.0963
     15 C           6.5474    0.6198    0.0000 C.3     1  UNL1       -0.0209
     16 C          11.1329   -0.7651    0.0000 C.ar    1  UNL1        0.0073
     17 C          12.6628   -1.2651    0.0000 C.3     1  UNL1        0.1344
     18 C           9.4009   -0.7651    0.0000 C.ar    1  UNL1       -0.0426
     19 C           7.5643   -1.7597    0.0000 C.2     1  UNL1        0.3109
     20 C          11.1329   -1.7651    0.0000 C.ar    1  UNL1        0.1664
     21 C          10.2669   -0.2651    0.0000 C.ar    1  UNL1       -0.0512
     22 C          12.3898    0.4901    0.0000 C.3     1  UNL1        0.0548
     23 C           9.4009   -1.7651    0.0000 C.ar    1  UNL1       -0.0131
     24 C          10.2669   -2.2651    0.0000 C.ar    1  UNL1        0.1621
     25 C           5.5963    0.9288    0.0000 C.ar    1  UNL1       -0.0433
     26 C          13.6628   -1.2651    0.0000 C.ar    1  UNL1       -0.0030
     27 C           5.3884    1.9069    0.0000 C.ar    1  UNL1       -0.0131
     28 C           4.8532    0.2596    0.0000 C.ar    1  UNL1       -0.0549
     29 C          14.1628   -2.1312    0.0000 C.ar    1  UNL1       -0.0096
     30 C          14.1628   -0.3991    0.0000 C.ar    1  UNL1       -0.0514
     31 C           4.4374    2.2159    0.0000 C.ar    1  UNL1        0.1617
     32 C          15.1628   -2.1312    0.0000 C.ar    1  UNL1        0.1616
     33 C           3.9021    0.5687    0.0000 C.ar    1  UNL1       -0.0160
     34 C          15.1628   -0.3991    0.0000 C.ar    1  UNL1       -0.0161
     35 C           3.6942    1.5468    0.0000 C.ar    1  UNL1        0.1615
     36 C          15.6628   -1.2651    0.0000 C.ar    1  UNL1        0.1585
     37 C           9.4009   -3.7651    0.0000 C.3     1  UNL1        0.0790
     38 C           4.9726    3.8632    0.0000 C.3     1  UNL1        0.0790
     39 C          15.1628   -3.8632    0.0000 C.3     1  UNL1        0.0790
     40 C           2.0000    1.1867    0.0000 C.3     1  UNL1        0.0790
     41 H           8.1888   -1.1028    0.0000 H       1  UNL1        0.0420
     42 H           6.1564   -0.1979    0.0000 H       1  UNL1        0.0345
     43 H           8.9334    0.2098    0.0000 H       1  UNL1        0.0321
     44 H           8.1363    0.2098    0.0000 H       1  UNL1        0.0321
     45 H          11.6417   -0.0210    0.0000 H       1  UNL1        0.0412
     46 H           5.6713   -0.6408    0.0000 H       1  UNL1        0.0700
     47 H           5.5846   -1.4660    0.0000 H       1  UNL1        0.0700
     48 H           7.1670    0.6414    0.0000 H       1  UNL1        0.0317
     49 H           6.6337    1.2337    0.0000 H       1  UNL1        0.0317
     50 H          12.9445   -0.7128    0.0000 H       1  UNL1        0.0791
     51 H          10.2669    0.3549    0.0000 H       1  UNL1        0.0624
     52 H          12.9367    0.1981    0.0000 H       1  UNL1        0.0564
     53 H          12.7724    0.9780    0.0000 H       1  UNL1        0.0564
     54 H           8.8639   -2.0751    0.0000 H       1  UNL1        0.0658
     55 H           5.8492    2.3218    0.0000 H       1  UNL1        0.0658
     56 H           4.9821   -0.3468    0.0000 H       1  UNL1        0.0621
     57 H          13.8528   -2.6681    0.0000 H       1  UNL1        0.0659
     58 H          13.8528    0.1378    0.0000 H       1  UNL1        0.0623
     59 H          11.9146    1.8237    0.0000 H       1  UNL1        0.2094
     60 H           3.4414    0.1538    0.0000 H       1  UNL1        0.0655
     61 H          15.4728    0.1378    0.0000 H       1  UNL1        0.0655
     62 H           9.0909   -3.2282    0.0000 H       1  UNL1        0.0660
     63 H           8.8639   -4.0751    0.0000 H       1  UNL1        0.0660
     64 H           9.7109   -4.3021    0.0000 H       1  UNL1        0.0660
     65 H          16.9728   -0.7282    0.0000 H       1  UNL1        0.2923
     66 H           5.3874    3.4025    0.0000 H       1  UNL1        0.0660
     67 H           5.4333    4.2781    0.0000 H       1  UNL1        0.0660
     68 H           4.5577    4.3240    0.0000 H       1  UNL1        0.0660
     69 H          14.6258   -3.5532    0.0000 H       1  UNL1        0.0660
     70 H          14.8528   -4.4002    0.0000 H       1  UNL1        0.0660
     71 H          15.6997   -4.1732    0.0000 H       1  UNL1        0.0660
     72 H           1.5851    1.6474    0.0000 H       1  UNL1        0.0660
     73 H           1.5392    0.7718    0.0000 H       1  UNL1        0.0660
     74 H           2.4149    0.7259    0.0000 H       1  UNL1        0.0660
@<TRIPOS>BOND
     1     1    14    1
     2     1    19    1
     3     2    17    1
     4     2    20    1
     5     3    19    2
     6     4    24    1
     7     4    37    1
     8     5    22    1
     9     5    59    1
    10     6    31    1
    11     6    38    1
    12     7    32    1
    13     7    39    1
    14     8    35    1
    15     8    40    1
    16     9    36    1
    17     9    65    1
    18    10    11    1
    19    10    12    1
    20    10    19    1
    21    10    41    1
    22    11    14    1
    23    11    15    1
    24    11    42    1
    25    12    18    1
    26    12    43    1
    27    12    44    1
    28    13    16    1
    29    13    17    1
    30    13    22    1
    31    13    45    1
    32    14    46    1
    33    14    47    1
    34    15    25    1
    35    15    48    1
    36    15    49    1
    37    16    20   ar
    38    16    21   ar
    39    17    26    1
    40    17    50    1
    41    18    21   ar
    42    18    23   ar
    43    20    24   ar
    44    21    51    1
    45    22    52    1
    46    22    53    1
    47    23    24   ar
    48    23    54    1
    49    25    27   ar
    50    25    28   ar
    51    26    29   ar
    52    26    30   ar
    53    27    31   ar
    54    27    55    1
    55    28    33   ar
    56    28    56    1
    57    29    32   ar
    58    29    57    1
    59    30    34   ar
    60    30    58    1
    61    31    35   ar
    62    32    36   ar
    63    33    35   ar
    64    33    60    1
    65    34    36   ar
    66    34    61    1
    67    37    62    1
    68    37    63    1
    69    37    64    1
    70    38    66    1
    71    38    67    1
    72    38    68    1
    73    39    69    1
    74    39    70    1
    75    39    71    1
    76    40    72    1
    77    40    73    1
    78    40    74    1
