@<TRIPOS>MOLECULE
IMPHY005710
 53 56 0 0 0
SMALL
GASTEIGER

@<TRIPOS>ATOM
      1 O           5.1350   -0.5406    0.0000 O.3     1  UNL1       -0.3313
      2 O           6.8671   -0.5406    0.0000 O.3     1  UNL1       -0.4534
      3 O           5.1350   -3.5406    0.0000 O.3     1  UNL1       -0.3864
      4 O           3.4030   -2.5406    0.0000 O.3     1  UNL1       -0.3865
      5 O           6.8671   -2.5406    0.0000 O.3     1  UNL1       -0.3829
      6 O           2.5369   -1.0406    0.0000 O.3     1  UNL1       -0.3924
      7 O           8.6273    0.4737    0.0000 O.2     1  UNL1       -0.4470
      8 O           5.0971    0.4904    0.0000 O.3     1  UNL1       -0.5031
      9 O           6.9141    3.5283    0.0000 O.3     1  UNL1       -0.5058
     10 O          10.3824    2.4535    0.0000 O.3     1  UNL1       -0.5007
     11 O           8.6620    3.4735    0.0000 O.2     1  UNL1       -0.2830
     12 O          12.9398   -1.0763    0.0000 O.3     1  UNL1       -0.5068
     13 C           5.1350   -2.5406    0.0000 C.3     1  UNL1        0.1152
     14 C           4.2690   -2.0406    0.0000 C.3     1  UNL1        0.1120
     15 C           6.0010   -2.0406    0.0000 C.3     1  UNL1        0.1454
     16 C           4.2690   -1.0406    0.0000 C.3     1  UNL1        0.1140
     17 C           6.0010   -1.0406    0.0000 C.3     1  UNL1        0.2311
     18 C           3.4030   -0.5406    0.0000 C.3     1  UNL1        0.0731
     19 C           6.8671    0.4594    0.0000 C.ar    1  UNL1        0.2080
     20 C           7.7671    0.9837    0.0000 C.ar    1  UNL1        0.1882
     21 C           5.9670    0.9837    0.0000 C.ar    1  UNL1        0.1658
     22 C           7.7787    1.9836    0.0000 C.ar    1  UNL1        0.1128
     23 C           6.8910    2.5286    0.0000 C.ar    1  UNL1        0.1350
     24 C           5.9790    2.0252    0.0000 C.ar    1  UNL1        0.0259
     25 C           8.6504    2.4736    0.0000 C.ar    1  UNL1        0.2380
     26 C           9.4991    0.9636    0.0000 C.ar    1  UNL1        0.1808
     27 C           9.5106    1.9636    0.0000 C.ar    1  UNL1        0.2082
     28 C          10.3592    0.4537    0.0000 C.ar    1  UNL1        0.0213
     29 C          10.3477   -0.5463    0.0000 C.ar    1  UNL1       -0.0475
     30 C          11.2310    0.9436    0.0000 C.ar    1  UNL1       -0.0475
     31 C          11.2079   -1.0563    0.0000 C.ar    1  UNL1       -0.0195
     32 C          12.0912    0.4336    0.0000 C.ar    1  UNL1       -0.0195
     33 C          12.0796   -0.5663    0.0000 C.ar    1  UNL1        0.1169
     34 H           5.6720   -2.8506    0.0000 H       1  UNL1        0.0648
     35 H           4.2690   -2.6606    0.0000 H       1  UNL1        0.0647
     36 H           6.5380   -1.7306    0.0000 H       1  UNL1        0.0683
     37 H           4.2690   -0.4206    0.0000 H       1  UNL1        0.0647
     38 H           6.0010   -0.4206    0.0000 H       1  UNL1        0.1084
     39 H           3.8015   -0.0657    0.0000 H       1  UNL1        0.0584
     40 H           3.0044   -0.0657    0.0000 H       1  UNL1        0.0584
     41 H           4.5981   -3.8506    0.0000 H       1  UNL1        0.2100
     42 H           3.4030   -3.1606    0.0000 H       1  UNL1        0.2100
     43 H           6.8671   -3.1606    0.0000 H       1  UNL1        0.2102
     44 H           2.0000   -0.7306    0.0000 H       1  UNL1        0.2095
     45 H           5.4470    2.3435    0.0000 H       1  UNL1        0.0692
     46 H           4.5626    0.8045    0.0000 H       1  UNL1        0.2923
     47 H           6.3845    3.8506    0.0000 H       1  UNL1        0.2922
     48 H           9.8072   -0.8500    0.0000 H       1  UNL1        0.0626
     49 H          11.2382    1.5636    0.0000 H       1  UNL1        0.0626
     50 H          10.3895    3.0735    0.0000 H       1  UNL1        0.2924
     51 H          11.2007   -1.6762    0.0000 H       1  UNL1        0.0654
     52 H          12.6317    0.7374    0.0000 H       1  UNL1        0.0654
     53 H          13.4803   -0.7725    0.0000 H       1  UNL1        0.2921
@<TRIPOS>BOND
     1     1    16    1
     2     1    17    1
     3    17     2    1
     4     2    19    1
     5    13     3    1
     6     3    41    1
     7    14     4    1
     8     4    42    1
     9    15     5    1
    10     5    43    1
    11     6    18    1
    12     6    44    1
    13     7    20   ar
    14     7    26   ar
    15     8    21    1
    16     8    46    1
    17     9    23    1
    18     9    47    1
    19    10    27    1
    20    10    50    1
    21    11    25    2
    22    12    33    1
    23    12    53    1
    24    13    14    1
    25    13    15    1
    26    13    34    1
    27    14    16    1
    28    14    35    1
    29    15    17    1
    30    15    36    1
    31    16    18    1
    32    16    37    1
    33    17    38    1
    34    18    39    1
    35    18    40    1
    36    19    20   ar
    37    19    21   ar
    38    20    22   ar
    39    21    24   ar
    40    22    23   ar
    41    22    25   ar
    42    23    24   ar
    43    24    45    1
    44    25    27   ar
    45    26    27   ar
    46    26    28    1
    47    28    29   ar
    48    28    30   ar
    49    29    31   ar
    50    29    48    1
    51    30    32   ar
    52    30    49    1
    53    31    33   ar
    54    31    51    1
    55    32    33   ar
    56    32    52    1
