@<TRIPOS>MOLECULE
IMPHY008192
 36 37 0 0 0
SMALL
GASTEIGER

@<TRIPOS>ATOM
      1 O           2.0000   -1.0590    0.0000 O.2     1  UNL1       -0.4669
      2 C           3.6030   -0.8919    0.0000 C.ar    1  UNL1        0.0005
      3 C           2.7370   -0.3919    0.0000 C.ar    1  UNL1        0.1125
      4 C           2.7370    0.6081    0.0000 C.3     1  UNL1        0.0267
      5 C           4.4691   -0.3919    0.0000 C.3     1  UNL1       -0.0057
      6 C           5.3351    2.1081    0.0000 C.3     1  UNL1       -0.0286
      7 C           4.4691    2.6081    0.0000 C.3     1  UNL1       -0.0308
      8 C           3.6030    1.1081    0.0000 C.2     1  UNL1       -0.0693
      9 C           5.3351    1.1081    0.0000 C.2     1  UNL1       -0.0759
     10 C           3.3938   -1.8638    0.0000 C.ar    1  UNL1       -0.0090
     11 C           4.4691    0.6081    0.0000 C.2     1  UNL1       -0.0806
     12 C           3.6030    2.1081    0.0000 C.2     1  UNL1       -0.0843
     13 C           2.4051   -1.9668    0.0000 C.ar    1  UNL1        0.0953
     14 C           4.7904    0.1117    0.0000 C.3     1  UNL1       -0.0434
     15 C           6.2011    0.6081    0.0000 C.3     1  UNL1       -0.0438
     16 C           4.0617   -2.6081    0.0000 C.3     1  UNL1       -0.0364
     17 H           2.5250    1.1907    0.0000 H       1  UNL1        0.0389
     18 H           2.1264    0.5004    0.0000 H       1  UNL1        0.0389
     19 H           4.6811   -0.9746    0.0000 H       1  UNL1        0.0357
     20 H           5.0796   -0.2843    0.0000 H       1  UNL1        0.0357
     21 H           5.9457    2.0004    0.0000 H       1  UNL1        0.0313
     22 H           5.5471    2.6907    0.0000 H       1  UNL1        0.0313
     23 H           4.8676    3.0830    0.0000 H       1  UNL1        0.0310
     24 H           4.0705    3.0830    0.0000 H       1  UNL1        0.0310
     25 H           4.2570    1.1907    0.0000 H       1  UNL1        0.0575
     26 H           3.0661    2.4181    0.0000 H       1  UNL1        0.0572
     27 H           2.0951   -2.5038    0.0000 H       1  UNL1        0.1032
     28 H           4.3919   -0.3632    0.0000 H       1  UNL1        0.0274
     29 H           5.2654   -0.2868    0.0000 H       1  UNL1        0.0274
     30 H           5.1889    0.5867    0.0000 H       1  UNL1        0.0274
     31 H           5.8911    0.0711    0.0000 H       1  UNL1        0.0274
     32 H           6.7380    0.2981    0.0000 H       1  UNL1        0.0274
     33 H           6.5111    1.1450    0.0000 H       1  UNL1        0.0274
     34 H           3.6002   -3.0221    0.0000 H       1  UNL1        0.0279
     35 H           4.4757   -3.0695    0.0000 H       1  UNL1        0.0279
     36 H           4.5232   -2.1940    0.0000 H       1  UNL1        0.0279
@<TRIPOS>BOND
     1     1     3   ar
     2     1    13   ar
     3     2     3   ar
     4     2     5    1
     5     2    10   ar
     6     3     4    1
     7     4     8    1
     8     4    17    1
     9     4    18    1
    10     5    11    1
    11     5    19    1
    12     5    20    1
    13     6     7    1
    14     6     9    1
    15     6    21    1
    16     6    22    1
    17     7    12    1
    18     7    23    1
    19     7    24    1
    20     8    12    2
    21     8    14    1
    22     9    11    2
    23     9    15    1
    24    10    13   ar
    25    10    16    1
    26    11    25    1
    27    12    26    1
    28    13    27    1
    29    14    28    1
    30    14    29    1
    31    14    30    1
    32    15    31    1
    33    15    32    1
    34    15    33    1
    35    16    34    1
    36    16    35    1
    37    16    36    1
