@<TRIPOS>MOLECULE
IMPHY004894
 78 81 0 0 0
SMALL
GASTEIGER

@<TRIPOS>ATOM
      1 O           2.5357   -3.7629    0.0000 O.3     1  UNL1       -0.3915
      2 C           7.9288   -0.7105    0.0000 C.3     1  UNL1       -0.0259
      3 C           7.9288   -1.7105    0.0000 C.3     1  UNL1       -0.0320
      4 C           7.0628   -2.2105    0.0000 C.3     1  UNL1       -0.0307
      5 C           6.1968   -1.7105    0.0000 C.3     1  UNL1       -0.0285
      6 C           8.8750   -0.4058    0.0000 C.3     1  UNL1       -0.0328
      7 C           7.0628   -0.2105    0.0000 C.3     1  UNL1       -0.0468
      8 C           5.2868   -2.2174    0.0000 C.3     1  UNL1       -0.0078
      9 C           8.8750   -2.0153    0.0000 C.3     1  UNL1       -0.0492
     10 C           6.1968   -0.7105    0.0000 C.3     1  UNL1       -0.0486
     11 C           9.4586   -1.2105    0.0000 C.3     1  UNL1       -0.0492
     12 C           7.0789   -3.2520    0.0000 C.3     1  UNL1       -0.0311
     13 C           9.1857    0.5447    0.0000 C.3     1  UNL1       -0.0403
     14 C           7.9288    0.2895    0.0000 C.3     1  UNL1       -0.0590
     15 C           5.2787   -3.2590    0.0000 C.2     1  UNL1       -0.0648
     16 C           4.3599   -1.6533    0.0000 C.3     1  UNL1       -0.0413
     17 C           6.1808   -3.7798    0.0000 C.2     1  UNL1       -0.0839
     18 C           5.2945   -1.2174    0.0000 C.3     1  UNL1       -0.0556
     19 C           4.3433   -3.8087    0.0000 C.3     1  UNL1       -0.0051
     20 C           3.4120   -2.1812    0.0000 C.3     1  UNL1       -0.0258
     21 C          10.1642    0.7509    0.0000 C.3     1  UNL1       -0.0465
     22 C           3.4037   -3.2662    0.0000 C.3     1  UNL1        0.0590
     23 C           8.5179    1.2890    0.0000 C.3     1  UNL1       -0.0621
     24 C          10.4749    1.7014    0.0000 C.3     1  UNL1       -0.0312
     25 C          11.4534    1.9077    0.0000 C.2     1  UNL1       -0.0712
     26 C          11.7640    2.8582    0.0000 C.3     1  UNL1       -0.0170
     27 C          12.1212    1.1634    0.0000 C.2     1  UNL1       -0.0989
     28 C          12.0747    3.8087    0.0000 C.3     1  UNL1       -0.0564
     29 C          12.7146    2.5475    0.0000 C.3     1  UNL1       -0.0564
     30 C          10.8135    3.1688    0.0000 C.3     1  UNL1       -0.0564
     31 H           8.0188   -2.5558    0.0000 H       1  UNL1        0.0309
     32 H           7.8022   -2.6298    0.0000 H       1  UNL1        0.0309
     33 H           6.9329   -1.2855    0.0000 H       1  UNL1        0.0312
     34 H           9.7148   -0.2739    0.0000 H       1  UNL1        0.0309
     35 H           7.4613    0.2644    0.0000 H       1  UNL1        0.0271
     36 H           6.6643    0.2644    0.0000 H       1  UNL1        0.0271
     37 H           8.6240   -2.5822    0.0000 H       1  UNL1        0.0268
     38 H           9.4124   -2.3245    0.0000 H       1  UNL1        0.0268
     39 H           5.9847   -0.1279    0.0000 H       1  UNL1        0.0268
     40 H           5.5862   -0.8182    0.0000 H       1  UNL1        0.0268
     41 H           9.9195   -1.6253    0.0000 H       1  UNL1        0.0268
     42 H           9.9195   -0.7958    0.0000 H       1  UNL1        0.0268
     43 H           7.2969   -3.8324    0.0000 H       1  UNL1        0.0310
     44 H           7.6880   -3.1366    0.0000 H       1  UNL1        0.0310
     45 H           9.3783    1.1340    0.0000 H       1  UNL1        0.0301
     46 H           8.5488    0.2895    0.0000 H       1  UNL1        0.0235
     47 H           7.9288    0.9095    0.0000 H       1  UNL1        0.0235
     48 H           7.3088    0.2895    0.0000 H       1  UNL1        0.0235
     49 H           4.7681   -1.1866    0.0000 H       1  UNL1        0.0274
     50 H           3.9700   -1.1713    0.0000 H       1  UNL1        0.0274
     51 H           6.1832   -4.3998    0.0000 H       1  UNL1        0.0572
     52 H           5.9145   -1.2222    0.0000 H       1  UNL1        0.0238
     53 H           5.2993   -0.5974    0.0000 H       1  UNL1        0.0238
     54 H           4.6745   -1.2126    0.0000 H       1  UNL1        0.0238
     55 H           3.9460   -4.2847    0.0000 H       1  UNL1        0.0335
     56 H           4.7443   -4.2816    0.0000 H       1  UNL1        0.0335
     57 H           3.2075   -1.5960    0.0000 H       1  UNL1        0.0290
     58 H           2.8004   -2.2826    0.0000 H       1  UNL1        0.0290
     59 H          10.1848    0.1313    0.0000 H       1  UNL1        0.0271
     60 H          10.7780    0.6636    0.0000 H       1  UNL1        0.0271
     61 H           3.4025   -3.8862    0.0000 H       1  UNL1        0.0596
     62 H           8.9793    1.7031    0.0000 H       1  UNL1        0.0233
     63 H           8.1038    1.7505    0.0000 H       1  UNL1        0.0233
     64 H           8.0564    0.8750    0.0000 H       1  UNL1        0.0233
     65 H          10.4543    2.3211    0.0000 H       1  UNL1        0.0310
     66 H           9.8611    1.7888    0.0000 H       1  UNL1        0.0310
     67 H           2.0000   -3.4508    0.0000 H       1  UNL1        0.2098
     68 H          11.9286    0.5740    0.0000 H       1  UNL1        0.0535
     69 H          12.7279    1.2912    0.0000 H       1  UNL1        0.0535
     70 H          12.6640    3.6161    0.0000 H       1  UNL1        0.0238
     71 H          12.2673    4.3980    0.0000 H       1  UNL1        0.0238
     72 H          11.4854    4.0013    0.0000 H       1  UNL1        0.0238
     73 H          12.5219    1.9582    0.0000 H       1  UNL1        0.0238
     74 H          13.3039    2.3549    0.0000 H       1  UNL1        0.0238
     75 H          12.9072    3.1368    0.0000 H       1  UNL1        0.0238
     76 H          11.0061    3.7582    0.0000 H       1  UNL1        0.0238
     77 H          10.2242    3.3615    0.0000 H       1  UNL1        0.0238
     78 H          10.6209    2.5795    0.0000 H       1  UNL1        0.0238
@<TRIPOS>BOND
     1    22     1    1
     2     1    67    1
     3     2     3    1
     4     2     6    1
     5     2     7    1
     6     2    14    1
     7     3     4    1
     8     3     9    1
     9     3    31    1
    10     4     5    1
    11     4    12    1
    12     4    32    1
    13     5     8    1
    14     5    10    1
    15     5    33    1
    16     6    11    1
    17     6    13    1
    18     6    34    1
    19     7    10    1
    20     7    35    1
    21     7    36    1
    22     8    15    1
    23     8    16    1
    24     8    18    1
    25     9    11    1
    26     9    37    1
    27     9    38    1
    28    10    39    1
    29    10    40    1
    30    11    41    1
    31    11    42    1
    32    12    17    1
    33    12    43    1
    34    12    44    1
    35    13    21    1
    36    13    23    1
    37    13    45    1
    38    14    46    1
    39    14    47    1
    40    14    48    1
    41    15    17    2
    42    15    19    1
    43    16    20    1
    44    16    49    1
    45    16    50    1
    46    17    51    1
    47    18    52    1
    48    18    53    1
    49    18    54    1
    50    19    22    1
    51    19    55    1
    52    19    56    1
    53    20    22    1
    54    20    57    1
    55    20    58    1
    56    21    24    1
    57    21    59    1
    58    21    60    1
    59    22    61    1
    60    23    62    1
    61    23    63    1
    62    23    64    1
    63    24    25    1
    64    24    65    1
    65    24    66    1
    66    25    26    1
    67    25    27    2
    68    26    28    1
    69    26    29    1
    70    26    30    1
    71    27    68    1
    72    27    69    1
    73    28    70    1
    74    28    71    1
    75    28    72    1
    76    29    73    1
    77    29    74    1
    78    29    75    1
    79    30    76    1
    80    30    77    1
    81    30    78    1
