@<TRIPOS>MOLECULE
IMPHY016185
 20 19 0 0 0
SMALL
GASTEIGER

@<TRIPOS>ATOM
      1 C           4.5981   -0.2500    0.0000 C.3     1  UNL1       -0.0310
      2 C           3.7320    0.2500    0.0000 C.3     1  UNL1       -0.0316
      3 C           5.4641    0.2500    0.0000 C.2     1  UNL1       -0.0837
      4 C           2.8660   -0.2500    0.0000 C.2     1  UNL1       -0.0908
      5 C           6.3301   -0.2500    0.0000 C.2     1  UNL1       -0.0662
      6 C           2.0000    0.2500    0.0000 C.2     1  UNL1       -0.1026
      7 C           7.1962    0.2500    0.0000 C.2     1  UNL1       -0.0692
      8 C           8.0622   -0.2500    0.0000 C.2     1  UNL1       -0.0987
      9 H           4.1996   -0.7249    0.0000 H       1  UNL1        0.0310
     10 H           4.9966   -0.7249    0.0000 H       1  UNL1        0.0310
     11 H           4.1306    0.7249    0.0000 H       1  UNL1        0.0310
     12 H           3.3335    0.7249    0.0000 H       1  UNL1        0.0310
     13 H           5.4641    0.8700    0.0000 H       1  UNL1        0.0572
     14 H           2.8660   -0.8700    0.0000 H       1  UNL1        0.0566
     15 H           6.3301   -0.8700    0.0000 H       1  UNL1        0.0614
     16 H           2.0000    0.8700    0.0000 H       1  UNL1        0.0532
     17 H           1.4631   -0.0600    0.0000 H       1  UNL1        0.0532
     18 H           7.1962    0.8700    0.0000 H       1  UNL1        0.0612
     19 H           8.0622   -0.8700    0.0000 H       1  UNL1        0.0535
     20 H           8.5991    0.0600    0.0000 H       1  UNL1        0.0535
@<TRIPOS>BOND
     1     1     2    1
     2     1     3    1
     3     1     9    1
     4     1    10    1
     5     2     4    1
     6     2    11    1
     7     2    12    1
     8     3     5    2
     9     3    13    1
    10     4     6    2
    11     4    14    1
    12     5     7    1
    13     5    15    1
    14     6    16    1
    15     6    17    1
    16     7     8    2
    17     7    18    1
    18     8    19    1
    19     8    20    1
