@<TRIPOS>MOLECULE
IMPHY010457
 74 79 0 0 0
SMALL
GASTEIGER

@<TRIPOS>ATOM
      1 O           6.3462   -1.6051    0.0000 O.3     1  UNL1       -0.3448
      2 O           5.2833   -2.0893    0.0000 O.3     1  UNL1       -0.3374
      3 O          12.7535    3.7742    0.0000 O.3     1  UNL1       -0.3915
      4 O           3.5858   -3.7776    0.0000 O.3     1  UNL1       -0.3921
      5 O           2.5662   -2.0151    0.0000 O.3     1  UNL1       -0.3921
      6 C           7.4136    0.6298    0.0000 C.3     1  UNL1       -0.0233
      7 C           8.2796    0.1298    0.0000 C.3     1  UNL1       -0.0295
      8 C           6.6766   -0.0373    0.0000 C.3     1  UNL1       -0.0015
      9 C           9.1457    0.6298    0.0000 C.3     1  UNL1       -0.0306
     10 C           7.0817   -0.9451    0.0000 C.3     1  UNL1        0.0660
     11 C           8.0704   -0.8420    0.0000 C.3     1  UNL1       -0.0226
     12 C           9.1457    1.6298    0.0000 C.3     1  UNL1       -0.0285
     13 C           5.6942   -0.1440    0.0000 C.3     1  UNL1        0.0160
     14 C           7.4136    1.6298    0.0000 C.3     1  UNL1       -0.0467
     15 C           5.4904   -1.1110    0.0000 C.3     1  UNL1        0.1742
     16 C           8.2796    2.1298    0.0000 C.3     1  UNL1       -0.0486
     17 C          10.0396    2.1644    0.0000 C.3     1  UNL1       -0.0078
     18 C           6.5476    1.1298    0.0000 C.3     1  UNL1       -0.0590
     19 C          10.0396    0.0951    0.0000 C.3     1  UNL1       -0.0311
     20 C           4.6239   -0.6117    0.0000 C.3     1  UNL1        0.0045
     21 C          10.9457    1.6506    0.0000 C.2     1  UNL1       -0.0648
     22 C           5.0231    0.5974    0.0000 C.3     1  UNL1       -0.0572
     23 C          10.0145    3.2491    0.0000 C.3     1  UNL1       -0.0413
     24 C          10.9457    0.6090    0.0000 C.2     1  UNL1       -0.0839
     25 C           4.2889   -2.1947    0.0000 C.3     1  UNL1        0.1187
     26 C           9.1698    2.6577    0.0000 C.3     1  UNL1       -0.0556
     27 C           3.8814   -1.2815    0.0000 C.3     1  UNL1       -0.0144
     28 C          11.8895    2.1858    0.0000 C.3     1  UNL1       -0.0051
     29 C          10.9457    3.8060    0.0000 C.3     1  UNL1       -0.0258
     30 C          11.8895    3.2708    0.0000 C.3     1  UNL1        0.0590
     31 C           3.3757   -2.6022    0.0000 C.3     1  UNL1        0.0755
     32 C           4.3943   -3.1891    0.0000 C.3     1  UNL1        0.0755
     33 H           8.9666   -0.3707    0.0000 H       1  UNL1        0.0310
     34 H           6.3285    0.7381    0.0000 H       1  UNL1        0.0335
     35 H           9.1391   -0.2202    0.0000 H       1  UNL1        0.0310
     36 H           7.4264   -1.7221    0.0000 H       1  UNL1        0.0600
     37 H           8.0695   -1.4620    0.0000 H       1  UNL1        0.0293
     38 H           8.6869   -0.9081    0.0000 H       1  UNL1        0.0293
     39 H           9.8850    1.2104    0.0000 H       1  UNL1        0.0312
     40 H           5.0956   -0.3058    0.0000 H       1  UNL1        0.0354
     41 H           7.2016    2.2124    0.0000 H       1  UNL1        0.0271
     42 H           6.8030    1.5221    0.0000 H       1  UNL1        0.0271
     43 H           8.6782    2.6047    0.0000 H       1  UNL1        0.0268
     44 H           7.8811    2.6047    0.0000 H       1  UNL1        0.0268
     45 H           6.8576    1.6667    0.0000 H       1  UNL1        0.0235
     46 H           6.0106    1.4398    0.0000 H       1  UNL1        0.0235
     47 H           6.2376    0.5928    0.0000 H       1  UNL1        0.0235
     48 H           9.6350   -0.3747    0.0000 H       1  UNL1        0.0310
     49 H          10.4332   -0.3839    0.0000 H       1  UNL1        0.0310
     50 H           4.9879   -0.1098    0.0000 H       1  UNL1        0.0318
     51 H           4.1628   -0.1973    0.0000 H       1  UNL1        0.0318
     52 H           5.4828    1.0134    0.0000 H       1  UNL1        0.0234
     53 H           4.6071    1.0571    0.0000 H       1  UNL1        0.0234
     54 H           4.5634    0.1813    0.0000 H       1  UNL1        0.0234
     55 H           9.7920    3.8278    0.0000 H       1  UNL1        0.0274
     56 H           9.4063    3.1289    0.0000 H       1  UNL1        0.0274
     57 H          11.4814    0.2969    0.0000 H       1  UNL1        0.0572
     58 H           9.4756    3.1970    0.0000 H       1  UNL1        0.0238
     59 H           8.6304    2.9636    0.0000 H       1  UNL1        0.0238
     60 H           8.8639    2.1184    0.0000 H       1  UNL1        0.0238
     61 H           3.5165   -0.7802    0.0000 H       1  UNL1        0.0296
     62 H           3.3447   -1.5920    0.0000 H       1  UNL1        0.0296
     63 H          12.0985    1.6021    0.0000 H       1  UNL1        0.0335
     64 H          12.5003    2.2919    0.0000 H       1  UNL1        0.0335
     65 H          11.3393    4.2851    0.0000 H       1  UNL1        0.0290
     66 H          10.5411    4.2758    0.0000 H       1  UNL1        0.0290
     67 H          12.4270    2.9618    0.0000 H       1  UNL1        0.0596
     68 H           4.6666   -3.7461    0.0000 H       1  UNL1        0.0587
     69 H           4.9901   -3.0177    0.0000 H       1  UNL1        0.0587
     70 H           2.9301   -3.0333    0.0000 H       1  UNL1        0.0587
     71 H           3.7228   -3.1159    0.0000 H       1  UNL1        0.0587
     72 H          12.7512    4.3942    0.0000 H       1  UNL1        0.2098
     73 H           3.6511   -4.3942    0.0000 H       1  UNL1        0.2095
     74 H           2.0000   -2.2678    0.0000 H       1  UNL1        0.2095
@<TRIPOS>BOND
     1     1    10    1
     2    15     1    1
     3     2    15    1
     4     2    25    1
     5    30     3    1
     6     3    72    1
     7     4    32    1
     8     4    73    1
     9     5    31    1
    10     5    74    1
    11     6     7    1
    12     6     8    1
    13     6    14    1
    14     6    18    1
    15     7     9    1
    16     7    11    1
    17     7    33    1
    18     8    10    1
    19     8    13    1
    20     8    34    1
    21     9    12    1
    22     9    19    1
    23     9    35    1
    24    10    11    1
    25    10    36    1
    26    11    37    1
    27    11    38    1
    28    12    16    1
    29    12    17    1
    30    12    39    1
    31    13    15    1
    32    13    22    1
    33    13    40    1
    34    14    16    1
    35    14    41    1
    36    14    42    1
    37    15    20    1
    38    16    43    1
    39    16    44    1
    40    17    21    1
    41    17    23    1
    42    17    26    1
    43    18    45    1
    44    18    46    1
    45    18    47    1
    46    19    24    1
    47    19    48    1
    48    19    49    1
    49    20    27    1
    50    20    50    1
    51    20    51    1
    52    21    24    2
    53    21    28    1
    54    22    52    1
    55    22    53    1
    56    22    54    1
    57    23    29    1
    58    23    55    1
    59    23    56    1
    60    24    57    1
    61    25    27    1
    62    25    31    1
    63    25    32    1
    64    26    58    1
    65    26    59    1
    66    26    60    1
    67    27    61    1
    68    27    62    1
    69    28    30    1
    70    28    63    1
    71    28    64    1
    72    29    30    1
    73    29    65    1
    74    29    66    1
    75    30    67    1
    76    31    70    1
    77    31    71    1
    78    32    68    1
    79    32    69    1
