@<TRIPOS>MOLECULE
IMPHY009707
 29 28 0 0 0
SMALL
GASTEIGER

@<TRIPOS>ATOM
      1 O           2.5369   -1.0670    0.0000 O.3     1  UNL1       -0.3882
      2 C           3.4030   -0.5670    0.0000 C.3     1  UNL1        0.0701
      3 C           4.2690   -0.0670    0.0000 C.3     1  UNL1        0.0235
      4 C           2.9030    0.2990    0.0000 C.3     1  UNL1       -0.0355
      5 C           3.9030   -1.4330    0.0000 C.3     1  UNL1       -0.0355
      6 C           5.1350   -0.5670    0.0000 C.2     1  UNL1       -0.0758
      7 C           4.2690    0.9330    0.0000 C.2     1  UNL1       -0.0816
      8 C           6.0010   -0.0670    0.0000 C.2     1  UNL1       -0.0790
      9 C           6.8671   -0.5670    0.0000 C.3     1  UNL1       -0.0440
     10 C           6.0010    0.9330    0.0000 C.3     1  UNL1       -0.0440
     11 C           5.1350    1.4330    0.0000 C.2     1  UNL1       -0.1020
     12 H           4.8059    0.2430    0.0000 H       1  UNL1        0.0413
     13 H           3.3660   -1.7430    0.0000 H       1  UNL1        0.0257
     14 H           4.2130   -1.9700    0.0000 H       1  UNL1        0.0257
     15 H           4.4399   -1.1230    0.0000 H       1  UNL1        0.0257
     16 H           3.4399    0.6090    0.0000 H       1  UNL1        0.0257
     17 H           2.5930    0.8360    0.0000 H       1  UNL1        0.0257
     18 H           2.3660   -0.0110    0.0000 H       1  UNL1        0.0257
     19 H           5.1350   -1.1870    0.0000 H       1  UNL1        0.0578
     20 H           3.7320    1.2430    0.0000 H       1  UNL1        0.0573
     21 H           2.0000   -0.7570    0.0000 H       1  UNL1        0.2102
     22 H           6.5571   -1.1039    0.0000 H       1  UNL1        0.0274
     23 H           7.4040   -0.8770    0.0000 H       1  UNL1        0.0274
     24 H           7.1771   -0.0301    0.0000 H       1  UNL1        0.0274
     25 H           6.6210    0.9330    0.0000 H       1  UNL1        0.0274
     26 H           6.0010    1.5530    0.0000 H       1  UNL1        0.0274
     27 H           5.3810    0.9330    0.0000 H       1  UNL1        0.0274
     28 H           5.6720    1.1230    0.0000 H       1  UNL1        0.0532
     29 H           5.1350    2.0530    0.0000 H       1  UNL1        0.0532
@<TRIPOS>BOND
     1     1     2    1
     2     1    21    1
     3     2     3    1
     4     2     4    1
     5     2     5    1
     6     3     6    1
     7     3     7    1
     8     3    12    1
     9     4    16    1
    10     4    17    1
    11     4    18    1
    12     5    13    1
    13     5    14    1
    14     5    15    1
    15     6     8    2
    16     6    19    1
    17     7    11    2
    18     7    20    1
    19     8     9    1
    20     8    10    1
    21     9    22    1
    22     9    23    1
    23     9    24    1
    24    10    25    1
    25    10    26    1
    26    10    27    1
    27    11    28    1
    28    11    29    1
