@<TRIPOS>MOLECULE
IMPHY002586
 51 53 0 0 0
SMALL
GASTEIGER

@<TRIPOS>ATOM
      1 O           6.3981   -0.2723    0.0000 O.2     1  UNL1       -0.4470
      2 O           8.1301    1.7277    0.0000 O.3     1  UNL1       -0.4883
      3 O           4.6497   -1.3069    0.0000 O.3     1  UNL1       -0.4885
      4 O           4.6497    2.7623    0.0000 O.3     1  UNL1       -0.4942
      5 O           2.8680   -0.2964    0.0000 O.3     1  UNL1       -0.4912
      6 O           6.3981    2.7277    0.0000 O.2     1  UNL1       -0.2830
      7 O           8.9962   -2.7723    0.0000 O.3     1  UNL1       -0.4914
      8 O          10.7282   -1.7723    0.0000 O.3     1  UNL1       -0.4915
      9 C           5.5320    1.2277    0.0000 C.ar    1  UNL1        0.1131
     10 C           5.5320    0.2277    0.0000 C.ar    1  UNL1        0.1881
     11 C           7.2641    0.2277    0.0000 C.ar    1  UNL1        0.1811
     12 C           7.2641    1.2277    0.0000 C.ar    1  UNL1        0.2107
     13 C           6.3981    1.7277    0.0000 C.ar    1  UNL1        0.2382
     14 C           4.6381   -0.3069    0.0000 C.ar    1  UNL1        0.2051
     15 C           4.6381    1.7624    0.0000 C.ar    1  UNL1        0.1383
     16 C           8.1301   -0.2723    0.0000 C.ar    1  UNL1        0.0247
     17 C           3.7320    0.2069    0.0000 C.ar    1  UNL1        0.1687
     18 C           3.7320    1.2485    0.0000 C.ar    1  UNL1        0.0264
     19 C           8.1301   -1.2723    0.0000 C.ar    1  UNL1       -0.0055
     20 C           8.9962    0.2277    0.0000 C.ar    1  UNL1       -0.0473
     21 C           8.9962   -1.7723    0.0000 C.ar    1  UNL1        0.1622
     22 C           9.8622   -1.2723    0.0000 C.ar    1  UNL1        0.1615
     23 C           9.8622   -0.2723    0.0000 C.ar    1  UNL1       -0.0156
     24 C           8.1301    2.7277    0.0000 C.3     1  UNL1        0.0791
     25 C           3.7895   -1.8169    0.0000 C.3     1  UNL1        0.0791
     26 C           3.7895    3.2723    0.0000 C.3     1  UNL1        0.0788
     27 C           2.0000    0.2002    0.0000 C.3     1  UNL1        0.0790
     28 C           9.8622   -3.2723    0.0000 C.3     1  UNL1        0.0790
     29 C          11.5942   -1.2723    0.0000 C.3     1  UNL1        0.0790
     30 H           3.1963    1.5606    0.0000 H       1  UNL1        0.0692
     31 H           7.5932   -1.5823    0.0000 H       1  UNL1        0.0662
     32 H           8.9962    0.8477    0.0000 H       1  UNL1        0.0626
     33 H          10.3991    0.0377    0.0000 H       1  UNL1        0.0655
     34 H           8.7501    2.7277    0.0000 H       1  UNL1        0.0660
     35 H           8.1301    3.3477    0.0000 H       1  UNL1        0.0660
     36 H           7.5101    2.7277    0.0000 H       1  UNL1        0.0660
     37 H           3.4733   -1.2836    0.0000 H       1  UNL1        0.0660
     38 H           3.2562   -2.1330    0.0000 H       1  UNL1        0.0660
     39 H           4.1057   -2.3502    0.0000 H       1  UNL1        0.0660
     40 H           4.1057    3.8056    0.0000 H       1  UNL1        0.0660
     41 H           3.2562    3.5885    0.0000 H       1  UNL1        0.0660
     42 H           3.4733    2.7390    0.0000 H       1  UNL1        0.0660
     43 H           2.3079    0.7383    0.0000 H       1  UNL1        0.0660
     44 H           1.4619    0.5081    0.0000 H       1  UNL1        0.0660
     45 H           1.6921   -0.3379    0.0000 H       1  UNL1        0.0660
     46 H           9.5522   -3.8092    0.0000 H       1  UNL1        0.0660
     47 H          10.3991   -3.5823    0.0000 H       1  UNL1        0.0660
     48 H          10.1722   -2.7354    0.0000 H       1  UNL1        0.0660
     49 H          11.9042   -1.8092    0.0000 H       1  UNL1        0.0660
     50 H          12.1312   -0.9623    0.0000 H       1  UNL1        0.0660
     51 H          11.2842   -0.7354    0.0000 H       1  UNL1        0.0660
@<TRIPOS>BOND
     1     1    10   ar
     2     1    11   ar
     3     2    12    1
     4     2    24    1
     5     3    14    1
     6     3    25    1
     7     4    15    1
     8     4    26    1
     9     5    17    1
    10     5    27    1
    11     6    13    2
    12     7    21    1
    13     7    28    1
    14     8    22    1
    15     8    29    1
    16     9    10   ar
    17     9    13   ar
    18     9    15   ar
    19    10    14   ar
    20    11    12   ar
    21    11    16    1
    22    12    13   ar
    23    14    17   ar
    24    15    18   ar
    25    16    19   ar
    26    16    20   ar
    27    17    18   ar
    28    18    30    1
    29    19    21   ar
    30    19    31    1
    31    20    23   ar
    32    20    32    1
    33    21    22   ar
    34    22    23   ar
    35    23    33    1
    36    24    34    1
    37    24    35    1
    38    24    36    1
    39    25    37    1
    40    25    38    1
    41    25    39    1
    42    26    40    1
    43    26    41    1
    44    26    42    1
    45    27    43    1
    46    27    44    1
    47    27    45    1
    48    28    46    1
    49    28    47    1
    50    28    48    1
    51    29    49    1
    52    29    50    1
    53    29    51    1
