@<TRIPOS>MOLECULE
IMPHY008098
 41 44 0 0 0
SMALL
GASTEIGER

@<TRIPOS>ATOM
      1 O           2.0000   -0.3799    0.0000 O.2     1  UNL1       -0.2971
      2 N           5.7007    1.1828    0.0000 N.pl3   1  UNL1       -0.3329
      3 C           4.5772   -0.2260    0.0000 C.3     1  UNL1        0.0211
      4 C           4.4413   -1.2107    0.0000 C.3     1  UNL1       -0.0224
      5 C           3.6763    0.2079    0.0000 C.3     1  UNL1        0.0286
      6 C           5.4782    0.2079    0.0000 C.2     1  UNL1        0.0099
      7 C           4.4534    0.1974    0.0000 C.3     1  UNL1       -0.0399
      8 C           3.4630   -1.3874    0.0000 C.3     1  UNL1        0.0098
      9 C           5.2511   -1.7801    0.0000 C.3     1  UNL1       -0.0429
     10 C           2.9912   -0.5124    0.0000 C.2     1  UNL1        0.1376
     11 C           3.4538    1.1828    0.0000 C.3     1  UNL1       -0.0412
     12 C           6.1541   -1.3745    0.0000 C.3     1  UNL1       -0.0237
     13 C           4.4892    0.9966    0.0000 C.3     1  UNL1       -0.0364
     14 C           6.2665   -0.3910    0.0000 C.2     1  UNL1       -0.0637
     15 C           5.2604    1.2094    0.0000 C.3     1  UNL1        0.0119
     16 C           4.0772    1.9646    0.0000 C.3     1  UNL1       -0.0366
     17 C           5.0772    1.9646    0.0000 C.3     1  UNL1        0.0119
     18 C           6.9615   -1.9646    0.0000 C.3     1  UNL1       -0.0589
     19 H           4.2582   -2.0408    0.0000 H       1  UNL1        0.0314
     20 H           2.9105    0.5767    0.0000 H       1  UNL1        0.0386
     21 H           3.8974    0.4718    0.0000 H       1  UNL1        0.0275
     22 H           5.0689    0.2715    0.0000 H       1  UNL1        0.0275
     23 H           2.8894   -1.6227    0.0000 H       1  UNL1        0.0345
     24 H           3.6367   -1.9826    0.0000 H       1  UNL1        0.0345
     25 H           4.8101   -2.2159    0.0000 H       1  UNL1        0.0274
     26 H           5.6016   -2.2915    0.0000 H       1  UNL1        0.0274
     27 H           3.0672    1.6675    0.0000 H       1  UNL1        0.0273
     28 H           2.8952    0.9138    0.0000 H       1  UNL1        0.0273
     29 H           6.7220   -1.1257    0.0000 H       1  UNL1        0.0341
     30 H           4.3877    1.6082    0.0000 H       1  UNL1        0.0281
     31 H           3.8704    0.9595    0.0000 H       1  UNL1        0.0281
     32 H           6.8367   -0.1474    0.0000 H       1  UNL1        0.0590
     33 H           5.5434    1.7610    0.0000 H       1  UNL1        0.0464
     34 H           5.3251    0.5928    0.0000 H       1  UNL1        0.0464
     35 H           4.2152    2.5691    0.0000 H       1  UNL1        0.0281
     36 H           3.5186    2.2336    0.0000 H       1  UNL1        0.0281
     37 H           5.6358    2.2336    0.0000 H       1  UNL1        0.0464
     38 H           4.9393    2.5691    0.0000 H       1  UNL1        0.0464
     39 H           6.5956   -2.4652    0.0000 H       1  UNL1        0.0235
     40 H           7.4620   -2.3305    0.0000 H       1  UNL1        0.0235
     41 H           7.3273   -1.4641    0.0000 H       1  UNL1        0.0235
@<TRIPOS>BOND
     1     1    10    2
     2     2     6    1
     3     2    15    1
     4     2    17    1
     5     3     4    1
     6     3     5    1
     7     3     6    1
     8     3     7    1
     9     4     8    1
    10     4     9    1
    11     4    19    1
    12     5    10    1
    13     5    11    1
    14     5    20    1
    15     6    14    2
    16     7    13    1
    17     7    21    1
    18     7    22    1
    19     8    10    1
    20     8    23    1
    21     8    24    1
    22     9    12    1
    23     9    25    1
    24     9    26    1
    25    11    16    1
    26    11    27    1
    27    11    28    1
    28    12    14    1
    29    12    18    1
    30    12    29    1
    31    13    15    1
    32    13    30    1
    33    13    31    1
    34    14    32    1
    35    15    33    1
    36    15    34    1
    37    16    17    1
    38    16    35    1
    39    16    36    1
    40    17    37    1
    41    17    38    1
    42    18    39    1
    43    18    40    1
    44    18    41    1
