@<TRIPOS>MOLECULE
IMPHY011363
 23 23 0 0 0
SMALL
GASTEIGER

@<TRIPOS>ATOM
      1 O           4.2690   -2.0000    0.0000 O.3     1  UNL1       -0.4949
      2 O           2.5369    1.0000    0.0000 O.3     1  UNL1       -0.5058
      3 O           6.0010    1.0000    0.0000 O.3     1  UNL1       -0.5058
      4 O           3.4030    2.5000    0.0000 O.2     1  UNL1       -0.2921
      5 C           4.2690    1.0000    0.0000 C.ar    1  UNL1        0.1000
      6 C           3.4030    0.5000    0.0000 C.ar    1  UNL1        0.1343
      7 C           5.1350    0.5000    0.0000 C.ar    1  UNL1        0.1343
      8 C           4.2690   -1.0000    0.0000 C.ar    1  UNL1        0.1271
      9 C           3.4030   -0.5000    0.0000 C.ar    1  UNL1        0.0225
     10 C           5.1350   -0.5000    0.0000 C.ar    1  UNL1        0.0225
     11 C           4.2690    2.0000    0.0000 C.2     1  UNL1        0.1671
     12 C           5.1350    2.5000    0.0000 C.3     1  UNL1       -0.0012
     13 C           3.4030   -2.5000    0.0000 C.3     1  UNL1        0.0788
     14 H           2.8660   -0.8100    0.0000 H       1  UNL1        0.0691
     15 H           5.6720   -0.8100    0.0000 H       1  UNL1        0.0691
     16 H           5.4450    1.9631    0.0000 H       1  UNL1        0.0309
     17 H           5.6720    2.8100    0.0000 H       1  UNL1        0.0309
     18 H           4.8250    3.0369    0.0000 H       1  UNL1        0.0309
     19 H           2.0000    0.6900    0.0000 H       1  UNL1        0.2922
     20 H           6.5380    0.6900    0.0000 H       1  UNL1        0.2922
     21 H           3.0930   -1.9631    0.0000 H       1  UNL1        0.0660
     22 H           2.8660   -2.8100    0.0000 H       1  UNL1        0.0660
     23 H           3.7130   -3.0369    0.0000 H       1  UNL1        0.0660
@<TRIPOS>BOND
     1     1     8    1
     2     1    13    1
     3     2     6    1
     4     2    19    1
     5     3     7    1
     6     3    20    1
     7     4    11    2
     8     5     6   ar
     9     5     7   ar
    10     5    11    1
    11     6     9   ar
    12     7    10   ar
    13     8     9   ar
    14     8    10   ar
    15     9    14    1
    16    10    15    1
    17    11    12    1
    18    12    16    1
    19    12    17    1
    20    12    18    1
    21    13    21    1
    22    13    22    1
    23    13    23    1
