@<TRIPOS>MOLECULE
IMPHY011492
 30 32 0 0 0
SMALL
GASTEIGER

@<TRIPOS>ATOM
      1 O           6.0682   -0.7500    0.0000 O.3     1  UNL1       -0.4830
      2 O           6.0682    2.2500    0.0000 O.2     1  UNL1       -0.2918
      3 O           2.5381   -0.7742    0.0000 O.3     1  UNL1       -0.5066
      4 C           6.9343   -0.2500    0.0000 C.3     1  UNL1        0.1322
      5 C           6.9343    0.7500    0.0000 C.3     1  UNL1        0.0519
      6 C           7.8003   -0.7500    0.0000 C.ar    1  UNL1       -0.0069
      7 C           5.2022    0.7500    0.0000 C.ar    1  UNL1        0.0594
      8 C           6.0682    1.2500    0.0000 C.2     1  UNL1        0.1705
      9 C           5.2022   -0.2500    0.0000 C.ar    1  UNL1        0.1353
     10 C           4.3083    1.2847    0.0000 C.ar    1  UNL1       -0.0443
     11 C           4.3083   -0.7847    0.0000 C.ar    1  UNL1        0.0223
     12 C           7.8003   -1.7500    0.0000 C.ar    1  UNL1       -0.0551
     13 C           8.6663   -0.2500    0.0000 C.ar    1  UNL1       -0.0551
     14 C           3.4022   -0.2708    0.0000 C.ar    1  UNL1        0.1204
     15 C           3.4022    0.7708    0.0000 C.ar    1  UNL1       -0.0193
     16 C           8.6663   -2.2500    0.0000 C.ar    1  UNL1       -0.0614
     17 C           9.5323   -0.7500    0.0000 C.ar    1  UNL1       -0.0614
     18 C           9.5323   -1.7500    0.0000 C.ar    1  UNL1       -0.0617
     19 H           6.9343   -0.8700    0.0000 H       1  UNL1        0.0789
     20 H           7.5449    0.6423    0.0000 H       1  UNL1        0.0385
     21 H           7.1463    1.3326    0.0000 H       1  UNL1        0.0385
     22 H           4.3154    1.9046    0.0000 H       1  UNL1        0.0627
     23 H           4.3154   -1.4046    0.0000 H       1  UNL1        0.0691
     24 H           7.2634   -2.0600    0.0000 H       1  UNL1        0.0621
     25 H           8.6663    0.3700    0.0000 H       1  UNL1        0.0621
     26 H           2.8665    1.0829    0.0000 H       1  UNL1        0.0654
     27 H           8.6663   -2.8700    0.0000 H       1  UNL1        0.0618
     28 H          10.0693   -0.4400    0.0000 H       1  UNL1        0.0618
     29 H          10.0693   -2.0600    0.0000 H       1  UNL1        0.0618
     30 H           2.0000   -0.4662    0.0000 H       1  UNL1        0.2921
@<TRIPOS>BOND
     1     1     4    1
     2     1     9    1
     3     2     8    2
     4     3    14    1
     5     3    30    1
     6     4     5    1
     7     4     6    1
     8     4    19    1
     9     5     8    1
    10     5    20    1
    11     5    21    1
    12     6    12   ar
    13     6    13   ar
    14     7     8    1
    15     7     9   ar
    16     7    10   ar
    17     9    11   ar
    18    10    15   ar
    19    10    22    1
    20    11    14   ar
    21    11    23    1
    22    12    16   ar
    23    12    24    1
    24    13    17   ar
    25    13    25    1
    26    14    15   ar
    27    15    26    1
    28    16    18   ar
    29    16    27    1
    30    17    18   ar
    31    17    28    1
    32    18    29    1
