@<TRIPOS>MOLECULE
IMPHY016223
 17 17 0 0 0
SMALL
GASTEIGER

@<TRIPOS>ATOM
      1 O           2.8660    1.3450    0.0000 O.3     1  UNL1       -0.3878
      2 C           2.0000   -0.1550    0.0000 C.3     1  UNL1       -0.0230
      3 C           2.0000   -1.1550    0.0000 C.3     1  UNL1       -0.0470
      4 C           2.8660    0.3450    0.0000 C.3     1  UNL1        0.0734
      5 C           2.8660   -1.6550    0.0000 C.3     1  UNL1       -0.0346
      6 C           3.7320   -0.1550    0.0000 C.2     1  UNL1       -0.0598
      7 C           3.7320   -1.1550    0.0000 C.2     1  UNL1       -0.0855
      8 H           1.7880    0.4276    0.0000 H       1  UNL1        0.0293
      9 H           1.3894   -0.2627    0.0000 H       1  UNL1        0.0293
     10 H           1.3894   -1.0473    0.0000 H       1  UNL1        0.0269
     11 H           1.7880   -1.7376    0.0000 H       1  UNL1        0.0269
     12 H           3.4030    0.6550    0.0000 H       1  UNL1        0.0637
     13 H           2.4675   -2.1300    0.0000 H       1  UNL1        0.0307
     14 H           3.2646   -2.1300    0.0000 H       1  UNL1        0.0307
     15 H           4.2690    0.1550    0.0000 H       1  UNL1        0.0594
     16 H           4.2690   -1.4650    0.0000 H       1  UNL1        0.0570
     17 H           3.4030    1.6550    0.0000 H       1  UNL1        0.2102
@<TRIPOS>BOND
     1     1     4    1
     2     1    17    1
     3     2     3    1
     4     2     4    1
     5     2     8    1
     6     2     9    1
     7     3     5    1
     8     3    10    1
     9     3    11    1
    10     4     6    1
    11     4    12    1
    12     5     7    1
    13     5    13    1
    14     5    14    1
    15     6     7    2
    16     6    15    1
    17     7    16    1
