@<TRIPOS>MOLECULE
IMPHY010874
 38 40 0 0 0
SMALL
GASTEIGER

@<TRIPOS>ATOM
      1 O           6.3580   -0.6193    0.0000 O.2     1  UNL1       -0.4542
      2 O           2.8660    1.4154    0.0000 O.3     1  UNL1       -0.4885
      3 O           4.5981    2.4154    0.0000 O.3     1  UNL1       -0.5027
      4 O           2.8660   -0.5846    0.0000 O.3     1  UNL1       -0.5031
      5 O           6.3465    2.4500    0.0000 O.2     1  UNL1       -0.2869
      6 O           7.2564   -2.1054    0.0000 O.3     1  UNL1       -0.5059
      7 O          10.7205   -2.1188    0.0000 O.3     1  UNL1       -0.4950
      8 C           5.4641    0.9154    0.0000 C.ar    1  UNL1        0.1091
      9 C           5.4641   -0.0846    0.0000 C.ar    1  UNL1        0.1465
     10 C           7.2641   -0.1054    0.0000 C.ar    1  UNL1        0.1427
     11 C           8.1282   -0.6088    0.0000 C.ar    1  UNL1        0.0590
     12 C           4.5981    1.4154    0.0000 C.ar    1  UNL1        0.1768
     13 C           6.3580    1.4501    0.0000 C.ar    1  UNL1        0.1967
     14 C           7.2641    0.9362    0.0000 C.ar    1  UNL1        0.0289
     15 C           4.5981   -0.5846    0.0000 C.ar    1  UNL1        0.0268
     16 C           3.7320    0.9154    0.0000 C.ar    1  UNL1        0.2040
     17 C           3.7320   -0.0846    0.0000 C.ar    1  UNL1        0.1657
     18 C           8.1244   -1.6087    0.0000 C.ar    1  UNL1        0.1310
     19 C           8.9962   -0.1121    0.0000 C.ar    1  UNL1       -0.0441
     20 C           8.9884   -2.1121    0.0000 C.ar    1  UNL1        0.0222
     21 C           9.8602   -0.6154    0.0000 C.ar    1  UNL1       -0.0191
     22 C           9.8564   -1.6154    0.0000 C.ar    1  UNL1        0.1236
     23 C           2.0000    0.9154    0.0000 C.3     1  UNL1        0.0791
     24 C          11.5884   -1.6221    0.0000 C.3     1  UNL1        0.0788
     25 H           7.7998    1.2483    0.0000 H       1  UNL1        0.0693
     26 H           4.5981   -1.2046    0.0000 H       1  UNL1        0.0692
     27 H           8.9985    0.5079    0.0000 H       1  UNL1        0.0627
     28 H           8.9860   -2.7321    0.0000 H       1  UNL1        0.0691
     29 H          10.3984   -0.3075    0.0000 H       1  UNL1        0.0654
     30 H           4.0611    2.7254    0.0000 H       1  UNL1        0.2923
     31 H           2.8660   -1.2046    0.0000 H       1  UNL1        0.2923
     32 H           7.2540   -2.7254    0.0000 H       1  UNL1        0.2922
     33 H           1.6900    1.4523    0.0000 H       1  UNL1        0.0660
     34 H           1.4631    0.6054    0.0000 H       1  UNL1        0.0660
     35 H           2.3100    0.3785    0.0000 H       1  UNL1        0.0660
     36 H          11.8964   -2.1602    0.0000 H       1  UNL1        0.0660
     37 H          12.1266   -1.3142    0.0000 H       1  UNL1        0.0660
     38 H          11.2805   -1.0840    0.0000 H       1  UNL1        0.0660
@<TRIPOS>BOND
     1     1     9   ar
     2     1    10   ar
     3     2    16    1
     4     2    23    1
     5     3    12    1
     6     3    30    1
     7     4    17    1
     8     4    31    1
     9     5    13    2
    10     6    18    1
    11     6    32    1
    12     7    22    1
    13     7    24    1
    14     8     9   ar
    15     8    12   ar
    16     8    13   ar
    17     9    15   ar
    18    10    11    1
    19    10    14   ar
    20    11    18   ar
    21    11    19   ar
    22    12    16   ar
    23    13    14   ar
    24    14    25    1
    25    15    17   ar
    26    15    26    1
    27    16    17   ar
    28    18    20   ar
    29    19    21   ar
    30    19    27    1
    31    20    22   ar
    32    20    28    1
    33    21    22   ar
    34    21    29    1
    35    23    33    1
    36    23    34    1
    37    23    35    1
    38    24    36    1
    39    24    37    1
    40    24    38    1
