@<TRIPOS>MOLECULE
IMPHY002250
 82 86 0 0 0
SMALL
GASTEIGER

@<TRIPOS>ATOM
      1 O           8.3991   -2.1426    0.0000 O.2     1  UNL1       -0.2971
      2 O          11.1246    2.5364    0.0000 O.3     1  UNL1       -0.3915
      3 C           6.6507   -1.1080    0.0000 C.3     1  UNL1       -0.0164
      4 C           5.7847   -0.6080    0.0000 C.3     1  UNL1       -0.0227
      5 C           7.5167    0.3920    0.0000 C.3     1  UNL1       -0.0187
      6 C           7.5167   -0.6080    0.0000 C.3     1  UNL1        0.0290
      7 C           4.8746   -1.1148    0.0000 C.3     1  UNL1       -0.0292
      8 C           4.8666   -2.1564    0.0000 C.3     1  UNL1       -0.0287
      9 C           8.4106    0.9267    0.0000 C.3     1  UNL1       -0.0288
     10 C           5.7847    0.3920    0.0000 C.3     1  UNL1       -0.0463
     11 C           6.6507    0.8920    0.0000 C.3     1  UNL1       -0.0462
     12 C           6.6667   -2.1495    0.0000 C.3     1  UNL1       -0.0460
     13 C           9.3167    0.4128    0.0000 C.3     1  UNL1       -0.0172
     14 C           5.7687   -2.6772    0.0000 C.3     1  UNL1       -0.0468
     15 C           3.9478   -0.5507    0.0000 C.3     1  UNL1       -0.0440
     16 C           8.4106   -1.1426    0.0000 C.2     1  UNL1        0.1380
     17 C           7.5167   -1.6080    0.0000 C.3     1  UNL1       -0.0584
     18 C           9.3167   -0.6288    0.0000 C.3     1  UNL1        0.0121
     19 C           4.9186   -0.1080    0.0000 C.3     1  UNL1       -0.0588
     20 C           3.9312   -2.7062    0.0000 C.3     1  UNL1       -0.0469
     21 C           2.9999   -1.0787    0.0000 C.3     1  UNL1       -0.0346
     22 C           8.3856    2.0114    0.0000 C.3     1  UNL1       -0.0468
     23 C          10.2605    0.9481    0.0000 C.3     1  UNL1       -0.0117
     24 C           7.5167    1.3920    0.0000 C.3     1  UNL1       -0.0586
     25 C           2.9916   -2.1636    0.0000 C.3     1  UNL1       -0.0474
     26 C           4.8589   -3.1564    0.0000 C.3     1  UNL1       -0.0593
     27 C          10.2605    2.0331    0.0000 C.3     1  UNL1        0.0583
     28 C           9.3167    2.5683    0.0000 C.3     1  UNL1       -0.0263
     29 C          10.1866   -0.0805    0.0000 C.3     1  UNL1       -0.0586
     30 C           2.0000   -1.0671    0.0000 C.3     1  UNL1       -0.0598
     31 C           2.5100   -0.2069    0.0000 C.3     1  UNL1       -0.0598
     32 C          11.1246    0.4447    0.0000 C.3     1  UNL1       -0.0596
     33 H           8.2561   -0.1887    0.0000 H       1  UNL1        0.0388
     34 H           5.6058   -1.5483    0.0000 H       1  UNL1        0.0312
     35 H           9.1401    1.3630    0.0000 H       1  UNL1        0.0312
     36 H           5.5726    0.9746    0.0000 H       1  UNL1        0.0271
     37 H           5.1741    0.2844    0.0000 H       1  UNL1        0.0271
     38 H           7.0492    1.3670    0.0000 H       1  UNL1        0.0271
     39 H           6.2522    1.3670    0.0000 H       1  UNL1        0.0271
     40 H           6.8848   -2.7299    0.0000 H       1  UNL1        0.0271
     41 H           7.2759   -2.0340    0.0000 H       1  UNL1        0.0271
     42 H           5.3714   -3.1532    0.0000 H       1  UNL1        0.0271
     43 H           6.1697   -3.1501    0.0000 H       1  UNL1        0.0271
     44 H           4.3560   -0.0841    0.0000 H       1  UNL1        0.0273
     45 H           3.5579   -0.0687    0.0000 H       1  UNL1        0.0273
     46 H           7.2067   -2.1449    0.0000 H       1  UNL1        0.0235
     47 H           8.0536   -1.9180    0.0000 H       1  UNL1        0.0235
     48 H           7.8267   -1.0710    0.0000 H       1  UNL1        0.0235
     49 H           9.5258   -1.2125    0.0000 H       1  UNL1        0.0347
     50 H           9.9276   -0.5227    0.0000 H       1  UNL1        0.0347
     51 H           5.2286    0.4290    0.0000 H       1  UNL1        0.0235
     52 H           4.3817    0.2020    0.0000 H       1  UNL1        0.0235
     53 H           4.6086   -0.6449    0.0000 H       1  UNL1        0.0235
     54 H           3.5339   -3.1821    0.0000 H       1  UNL1        0.0271
     55 H           4.3322   -3.1790    0.0000 H       1  UNL1        0.0271
     56 H           8.1631    2.5901    0.0000 H       1  UNL1        0.0269
     57 H           7.7773    1.8912    0.0000 H       1  UNL1        0.0269
     58 H          10.7980    1.2570    0.0000 H       1  UNL1        0.0328
     59 H           8.1367    1.3920    0.0000 H       1  UNL1        0.0235
     60 H           7.5167    2.0120    0.0000 H       1  UNL1        0.0235
     61 H           6.8967    1.3920    0.0000 H       1  UNL1        0.0235
     62 H           2.3816   -2.0529    0.0000 H       1  UNL1        0.0271
     63 H           2.7780   -2.7457    0.0000 H       1  UNL1        0.0271
     64 H           4.2389   -3.1516    0.0000 H       1  UNL1        0.0235
     65 H           4.8541   -3.7764    0.0000 H       1  UNL1        0.0235
     66 H           5.4789   -3.1612    0.0000 H       1  UNL1        0.0235
     67 H          10.7980    1.7241    0.0000 H       1  UNL1        0.0596
     68 H           9.7103    3.0473    0.0000 H       1  UNL1        0.0290
     69 H           8.9121    3.0381    0.0000 H       1  UNL1        0.0290
     70 H           9.8807   -0.6198    0.0000 H       1  UNL1        0.0235
     71 H          10.7259   -0.3863    0.0000 H       1  UNL1        0.0235
     72 H          10.4924    0.4588    0.0000 H       1  UNL1        0.0235
     73 H           2.0072   -0.4472    0.0000 H       1  UNL1        0.0235
     74 H           1.3800   -1.0600    0.0000 H       1  UNL1        0.0235
     75 H           1.9928   -1.6871    0.0000 H       1  UNL1        0.0235
     76 H           3.0505    0.0968    0.0000 H       1  UNL1        0.0235
     77 H           2.2062    0.3335    0.0000 H       1  UNL1        0.0235
     78 H           1.9695   -0.5107    0.0000 H       1  UNL1        0.0235
     79 H          10.8125   -0.0910    0.0000 H       1  UNL1        0.0233
     80 H          11.6603    0.1327    0.0000 H       1  UNL1        0.0233
     81 H          11.4367    0.9805    0.0000 H       1  UNL1        0.0233
     82 H          11.1222    3.1564    0.0000 H       1  UNL1        0.2098
@<TRIPOS>BOND
     1     1    16    2
     2    27     2    1
     3     2    82    1
     4     3     4    1
     5     3     6    1
     6     3    12    1
     7     3    17    1
     8     4     7    1
     9     4    10    1
    10     4    19    1
    11     5     6    1
    12     5     9    1
    13     5    11    1
    14     5    24    1
    15     6    16    1
    16     6    33    1
    17     7     8    1
    18     7    15    1
    19     7    34    1
    20     8    14    1
    21     8    20    1
    22     8    26    1
    23     9    13    1
    24     9    22    1
    25     9    35    1
    26    10    11    1
    27    10    36    1
    28    10    37    1
    29    11    38    1
    30    11    39    1
    31    12    14    1
    32    12    40    1
    33    12    41    1
    34    13    18    1
    35    13    23    1
    36    13    29    1
    37    14    42    1
    38    14    43    1
    39    15    21    1
    40    15    44    1
    41    15    45    1
    42    16    18    1
    43    17    46    1
    44    17    47    1
    45    17    48    1
    46    18    49    1
    47    18    50    1
    48    19    51    1
    49    19    52    1
    50    19    53    1
    51    20    25    1
    52    20    54    1
    53    20    55    1
    54    21    25    1
    55    21    30    1
    56    21    31    1
    57    22    28    1
    58    22    56    1
    59    22    57    1
    60    23    27    1
    61    23    32    1
    62    23    58    1
    63    24    59    1
    64    24    60    1
    65    24    61    1
    66    25    62    1
    67    25    63    1
    68    26    64    1
    69    26    65    1
    70    26    66    1
    71    27    28    1
    72    27    67    1
    73    28    68    1
    74    28    69    1
    75    29    70    1
    76    29    71    1
    77    29    72    1
    78    30    73    1
    79    30    74    1
    80    30    75    1
    81    31    76    1
    82    31    77    1
    83    31    78    1
    84    32    79    1
    85    32    80    1
    86    32    81    1
