@<TRIPOS>MOLECULE
IMPHY006569
 28 29 0 0 0
SMALL
GASTEIGER

@<TRIPOS>ATOM
      1 S           5.9150   -0.5175    0.0000 S.2     1  UNL1       -0.0895
      2 S           8.4841    0.3490    0.0000 S.2     1  UNL1       -0.0794
      3 O           3.9470   -1.2169    0.0000 O.3     1  UNL1       -0.3758
      4 O           2.4608    0.1213    0.0000 O.3     1  UNL1       -0.4786
      5 O           3.6197    1.4085    0.0000 O.2     1  UNL1       -0.2477
      6 C           5.1060    0.0702    0.0000 C.ar    1  UNL1        0.0295
      7 C           6.7240    0.0702    0.0000 C.ar    1  UNL1        0.0263
      8 C           4.1550   -0.2388    0.0000 C.3     1  UNL1        0.1827
      9 C           7.6751   -0.2388    0.0000 C.ar    1  UNL1        0.0271
     10 C           5.4150    1.0213    0.0000 C.ar    1  UNL1       -0.0479
     11 C           6.4150    1.0213    0.0000 C.ar    1  UNL1       -0.0461
     12 C           7.9841   -1.1898    0.0000 C.ar    1  UNL1       -0.0452
     13 C           8.9841   -1.1898    0.0000 C.ar    1  UNL1       -0.0386
     14 C           9.2931   -0.2388    0.0000 C.ar    1  UNL1        0.0625
     15 C           3.4118    0.4304    0.0000 C.2     1  UNL1        0.3387
     16 C          10.2442    0.0702    0.0000 C.1     1  UNL1       -0.0594
     17 C          11.1952    0.3793    0.0000 C.1     1  UNL1       -0.0998
     18 C          12.1463    0.6883    0.0000 C.3     1  UNL1       -0.0022
     19 H           4.6157   -0.6536    0.0000 H       1  UNL1        0.0767
     20 H           5.0506    1.5229    0.0000 H       1  UNL1        0.0627
     21 H           6.7794    1.5229    0.0000 H       1  UNL1        0.0629
     22 H           7.6197   -1.6914    0.0000 H       1  UNL1        0.0629
     23 H           9.3485   -1.6914    0.0000 H       1  UNL1        0.0635
     24 H           3.3574   -1.4085    0.0000 H       1  UNL1        0.2110
     25 H           2.0000    0.5362    0.0000 H       1  UNL1        0.2951
     26 H          12.3379    0.0986    0.0000 H       1  UNL1        0.0362
     27 H          12.7360    0.8799    0.0000 H       1  UNL1        0.0362
     28 H          11.9547    1.2779    0.0000 H       1  UNL1        0.0362
@<TRIPOS>BOND
     1     1     6   ar
     2     1     7   ar
     3     2     9   ar
     4     2    14   ar
     5     3     8    1
     6     3    24    1
     7     4    15    1
     8     4    25    1
     9     5    15    2
    10     6     8    1
    11     6    10   ar
    12     7     9    1
    13     7    11   ar
    14     8    15    1
    15     8    19    1
    16     9    12   ar
    17    10    11   ar
    18    10    20    1
    19    11    21    1
    20    12    13   ar
    21    12    22    1
    22    13    14   ar
    23    13    23    1
    24    14    16    1
    25    16    17    3
    26    17    18    1
    27    18    26    1
    28    18    27    1
    29    18    28    1
