@<TRIPOS>MOLECULE
IMPHY017889
 38 38 0 0 0
SMALL
GASTEIGER

@<TRIPOS>ATOM
      1 O           2.0000   -4.0000    0.0000 O.2     1  UNL1       -0.2960
      2 C           2.8660   -0.5000    0.0000 C.3     1  UNL1       -0.0164
      3 C           2.0000   -1.0000    0.0000 C.3     1  UNL1       -0.0422
      4 C           3.7320   -1.0000    0.0000 C.3     1  UNL1       -0.0276
      5 C           2.0000   -2.0000    0.0000 C.3     1  UNL1       -0.0244
      6 C           2.8660    0.5000    0.0000 C.2     1  UNL1       -0.0729
      7 C           2.8660   -2.5000    0.0000 C.2     1  UNL1       -0.0121
      8 C           3.7320   -2.0000    0.0000 C.2     1  UNL1       -0.0772
      9 C           3.7320    1.0000    0.0000 C.3     1  UNL1       -0.0283
     10 C           3.7320    2.0000    0.0000 C.3     1  UNL1       -0.0308
     11 C           2.0000    1.0000    0.0000 C.2     1  UNL1       -0.0992
     12 C           2.8660   -3.5000    0.0000 C.2     1  UNL1        0.1460
     13 C           4.5981    2.5000    0.0000 C.2     1  UNL1       -0.0850
     14 C           4.5981    3.5000    0.0000 C.2     1  UNL1       -0.0796
     15 C           5.4641    4.0000    0.0000 C.3     1  UNL1       -0.0440
     16 C           3.7320    4.0000    0.0000 C.3     1  UNL1       -0.0440
     17 H           3.4030   -0.1900    0.0000 H       1  UNL1        0.0349
     18 H           1.7880   -0.4174    0.0000 H       1  UNL1        0.0274
     19 H           1.3894   -1.1077    0.0000 H       1  UNL1        0.0274
     20 H           4.3426   -1.1077    0.0000 H       1  UNL1        0.0313
     21 H           3.9441   -0.4174    0.0000 H       1  UNL1        0.0313
     22 H           1.3894   -1.8923    0.0000 H       1  UNL1        0.0314
     23 H           1.7880   -2.5826    0.0000 H       1  UNL1        0.0314
     24 H           4.2690   -2.3100    0.0000 H       1  UNL1        0.0576
     25 H           3.9441    0.4174    0.0000 H       1  UNL1        0.0313
     26 H           4.3426    1.1077    0.0000 H       1  UNL1        0.0313
     27 H           3.5200    2.5826    0.0000 H       1  UNL1        0.0310
     28 H           3.1215    1.8923    0.0000 H       1  UNL1        0.0310
     29 H           2.0000    1.6200    0.0000 H       1  UNL1        0.0534
     30 H           1.4631    0.6900    0.0000 H       1  UNL1        0.0534
     31 H           3.4030   -3.8100    0.0000 H       1  UNL1        0.1078
     32 H           5.1350    2.1900    0.0000 H       1  UNL1        0.0572
     33 H           5.7741    3.4631    0.0000 H       1  UNL1        0.0274
     34 H           6.0010    4.3100    0.0000 H       1  UNL1        0.0274
     35 H           5.1541    4.5369    0.0000 H       1  UNL1        0.0274
     36 H           4.0420    4.5369    0.0000 H       1  UNL1        0.0274
     37 H           3.1951    4.3100    0.0000 H       1  UNL1        0.0274
     38 H           3.4220    3.4631    0.0000 H       1  UNL1        0.0274
@<TRIPOS>BOND
     1     1    12    2
     2     2     3    1
     3     2     4    1
     4     2     6    1
     5     2    17    1
     6     3     5    1
     7     3    18    1
     8     3    19    1
     9     4     8    1
    10     4    20    1
    11     4    21    1
    12     5     7    1
    13     5    22    1
    14     5    23    1
    15     6     9    1
    16     6    11    2
    17     7     8    2
    18     7    12    1
    19     8    24    1
    20     9    10    1
    21     9    25    1
    22     9    26    1
    23    10    13    1
    24    10    27    1
    25    10    28    1
    26    11    29    1
    27    11    30    1
    28    12    31    1
    29    13    14    2
    30    13    32    1
    31    14    15    1
    32    14    16    1
    33    15    33    1
    34    15    34    1
    35    15    35    1
    36    16    36    1
    37    16    37    1
    38    16    38    1
