@<TRIPOS>MOLECULE
IMPHY006152
 28 29 0 0 0
SMALL
GASTEIGER

@<TRIPOS>ATOM
      1 O           4.5981   -0.2500    0.0000 O.2     1  UNL1       -0.2522
      2 N           3.7320    1.2500    0.0000 N.am    1  UNL1       -0.2692
      3 N           2.8660   -0.2500    0.0000 N.am    1  UNL1       -0.2692
      4 C           2.8660   -1.2500    0.0000 C.ar    1  UNL1        0.0348
      5 C           4.5981    1.7500    0.0000 C.ar    1  UNL1        0.0348
      6 C           3.7320    0.2500    0.0000 C.2     1  UNL1        0.3081
      7 C           2.0000   -1.7500    0.0000 C.ar    1  UNL1       -0.0404
      8 C           5.4641    1.2500    0.0000 C.ar    1  UNL1       -0.0404
      9 C           3.7320   -1.7500    0.0000 C.ar    1  UNL1       -0.0404
     10 C           4.5981    2.7500    0.0000 C.ar    1  UNL1       -0.0404
     11 C           2.0000   -2.7500    0.0000 C.ar    1  UNL1       -0.0600
     12 C           6.3301    1.7500    0.0000 C.ar    1  UNL1       -0.0600
     13 C           3.7320   -2.7500    0.0000 C.ar    1  UNL1       -0.0600
     14 C           5.4641    3.2500    0.0000 C.ar    1  UNL1       -0.0600
     15 C           6.3301    2.7500    0.0000 C.ar    1  UNL1       -0.0616
     16 C           2.8660   -3.2500    0.0000 C.ar    1  UNL1       -0.0616
     17 H           2.3291    0.0600    0.0000 H       1  UNL1        0.1564
     18 H           3.1951    1.5600    0.0000 H       1  UNL1        0.1564
     19 H           1.4631   -1.4400    0.0000 H       1  UNL1        0.0636
     20 H           5.4641    0.6300    0.0000 H       1  UNL1        0.0636
     21 H           4.2690   -1.4400    0.0000 H       1  UNL1        0.0636
     22 H           4.0611    3.0600    0.0000 H       1  UNL1        0.0636
     23 H           1.4631   -3.0600    0.0000 H       1  UNL1        0.0618
     24 H           6.8671    1.4400    0.0000 H       1  UNL1        0.0618
     25 H           4.2690   -3.0600    0.0000 H       1  UNL1        0.0618
     26 H           5.4641    3.8700    0.0000 H       1  UNL1        0.0618
     27 H           2.8660   -3.8700    0.0000 H       1  UNL1        0.0618
     28 H           6.8671    3.0600    0.0000 H       1  UNL1        0.0618
@<TRIPOS>BOND
     1     1     6    2
     2     2     5    1
     3     2     6   am
     4     2    18    1
     5     3     4    1
     6     3     6   am
     7     3    17    1
     8     4     7   ar
     9     4     9   ar
    10     5     8   ar
    11     5    10   ar
    12     7    11   ar
    13     7    19    1
    14     8    12   ar
    15     8    20    1
    16     9    13   ar
    17     9    21    1
    18    10    14   ar
    19    10    22    1
    20    11    16   ar
    21    11    23    1
    22    12    15   ar
    23    12    24    1
    24    13    16   ar
    25    13    25    1
    26    14    15   ar
    27    14    26    1
    28    15    28    1
    29    16    27    1
