@<TRIPOS>MOLECULE
IMPHY000876
 103 108 0 0 0
SMALL
GASTEIGER

@<TRIPOS>ATOM
      1 O           5.1350   -4.2873    0.0000 O.3     1  UNL1       -0.3313
      2 O           6.8671   -4.2873    0.0000 O.3     1  UNL1       -0.4572
      3 O           5.1350   -7.2873    0.0000 O.3     1  UNL1       -0.3864
      4 O           3.4030   -6.2873    0.0000 O.3     1  UNL1       -0.3865
      5 O           6.8671   -6.2873    0.0000 O.3     1  UNL1       -0.3829
      6 O           9.4987    1.2719    0.0000 O.3     1  UNL1       -0.4491
      7 O           2.5369   -4.7873    0.0000 O.3     1  UNL1       -0.3924
      8 O           6.9026    1.7819    0.0000 O.3     1  UNL1       -0.4463
      9 O           5.0971   -3.2563    0.0000 O.3     1  UNL1       -0.5033
     10 O          10.3589   -0.2314    0.0000 O.2     1  UNL1       -0.2501
     11 O           8.6346    1.7752    0.0000 O.2     1  UNL1       -0.2453
     12 O          10.3435   -4.2314    0.0000 O.3     1  UNL1       -0.5033
     13 O          12.0794   -3.2381    0.0000 O.3     1  UNL1       -0.5033
     14 O          12.0987    1.7619    0.0000 O.3     1  UNL1       -0.4780
     15 O          11.2269    0.2652    0.0000 O.2     1  UNL1       -0.2468
     16 O           7.7782    4.2785    0.0000 O.3     1  UNL1       -0.4780
     17 O           8.6384    2.7752    0.0000 O.2     1  UNL1       -0.2468
     18 O          13.8346    2.7552    0.0000 O.3     1  UNL1       -0.5033
     19 O          13.8423    4.7552    0.0000 O.3     1  UNL1       -0.5033
     20 O           7.7859    6.2785    0.0000 O.3     1  UNL1       -0.5033
     21 O           6.0577    7.2852    0.0000 O.3     1  UNL1       -0.5033
     22 C           5.1350   -6.2873    0.0000 C.3     1  UNL1        0.1152
     23 C           4.2690   -5.7873    0.0000 C.3     1  UNL1        0.1120
     24 C           6.0010   -5.7873    0.0000 C.3     1  UNL1        0.1454
     25 C           8.6230   -1.2248    0.0000 C.3     1  UNL1        0.0272
     26 C           4.2690   -4.7873    0.0000 C.3     1  UNL1        0.1140
     27 C           6.0010   -4.7873    0.0000 C.3     1  UNL1        0.2310
     28 C           8.6269   -0.2248    0.0000 C.3     1  UNL1        0.0988
     29 C           7.7551   -1.7214    0.0000 C.ar    1  UNL1       -0.0280
     30 C           6.8910   -1.2181    0.0000 C.ar    1  UNL1       -0.0171
     31 C           7.7628    0.2786    0.0000 C.2     1  UNL1        0.0518
     32 C           9.4871   -1.7281    0.0000 C.ar    1  UNL1       -0.0352
     33 C           3.4030   -4.2873    0.0000 C.3     1  UNL1        0.0731
     34 C           7.7671   -2.7630    0.0000 C.ar    1  UNL1       -0.0118
     35 C           6.8671   -3.2873    0.0000 C.ar    1  UNL1        0.1655
     36 C           6.8948   -0.2181    0.0000 C.2     1  UNL1       -0.0434
     37 C           9.4948    0.2719    0.0000 C.2     1  UNL1        0.3165
     38 C           5.9790   -1.7214    0.0000 C.ar    1  UNL1       -0.0091
     39 C           5.9670   -2.7630    0.0000 C.ar    1  UNL1        0.1592
     40 C           9.4833   -2.7281    0.0000 C.ar    1  UNL1       -0.0127
     41 C          10.3551   -1.2314    0.0000 C.ar    1  UNL1       -0.0543
     42 C           7.7666    1.2786    0.0000 C.2     1  UNL1        0.3368
     43 C          10.3474   -3.2314    0.0000 C.ar    1  UNL1        0.1585
     44 C          11.2192   -1.7348    0.0000 C.ar    1  UNL1       -0.0163
     45 C          10.3666    1.7686    0.0000 C.3     1  UNL1        0.2026
     46 C          11.2153   -2.7348    0.0000 C.ar    1  UNL1        0.1582
     47 C           6.9064    2.7819    0.0000 C.3     1  UNL1        0.2029
     48 C          10.3705    2.7685    0.0000 C.3     1  UNL1        0.0203
     49 C           6.0423    3.2852    0.0000 C.3     1  UNL1        0.0203
     50 C          11.2307    1.2652    0.0000 C.2     1  UNL1        0.3463
     51 C          11.2384    3.2652    0.0000 C.ar    1  UNL1       -0.0396
     52 C           7.7744    3.2786    0.0000 C.2     1  UNL1        0.3463
     53 C           6.0462    4.2852    0.0000 C.ar    1  UNL1       -0.0396
     54 C          12.1025    2.7619    0.0000 C.ar    1  UNL1       -0.0132
     55 C          11.2423    4.2652    0.0000 C.ar    1  UNL1       -0.0548
     56 C           6.9141    4.7819    0.0000 C.ar    1  UNL1       -0.0132
     57 C           5.1821    4.7886    0.0000 C.ar    1  UNL1       -0.0548
     58 C          12.9705    3.2585    0.0000 C.ar    1  UNL1        0.1585
     59 C          12.1102    4.7618    0.0000 C.ar    1  UNL1       -0.0163
     60 C          12.9743    4.2585    0.0000 C.ar    1  UNL1        0.1582
     61 C           6.9180    5.7819    0.0000 C.ar    1  UNL1        0.1585
     62 C           5.1859    5.7886    0.0000 C.ar    1  UNL1       -0.0163
     63 C           6.0539    6.2852    0.0000 C.ar    1  UNL1        0.1582
     64 H           5.6720   -6.5973    0.0000 H       1  UNL1        0.0648
     65 H           4.2690   -6.4073    0.0000 H       1  UNL1        0.0647
     66 H           6.5380   -5.4773    0.0000 H       1  UNL1        0.0683
     67 H           9.1612   -0.9168    0.0000 H       1  UNL1        0.0409
     68 H           4.2690   -4.1673    0.0000 H       1  UNL1        0.0647
     69 H           6.0010   -4.1673    0.0000 H       1  UNL1        0.1084
     70 H           8.6293    0.3952    0.0000 H       1  UNL1        0.0474
     71 H           3.8015   -3.8123    0.0000 H       1  UNL1        0.0584
     72 H           3.0044   -3.8123    0.0000 H       1  UNL1        0.0584
     73 H           8.3064   -3.0688    0.0000 H       1  UNL1        0.0658
     74 H           6.3591    0.0940    0.0000 H       1  UNL1        0.0629
     75 H           5.4470   -1.4032    0.0000 H       1  UNL1        0.0661
     76 H           4.5981   -7.5973    0.0000 H       1  UNL1        0.2100
     77 H           3.4030   -6.9073    0.0000 H       1  UNL1        0.2100
     78 H           6.8671   -6.9073    0.0000 H       1  UNL1        0.2102
     79 H           8.9451   -3.0360    0.0000 H       1  UNL1        0.0658
     80 H          10.3575   -0.6114    0.0000 H       1  UNL1        0.0622
     81 H           2.0000   -4.4773    0.0000 H       1  UNL1        0.2095
     82 H          11.7573   -1.4268    0.0000 H       1  UNL1        0.0655
     83 H          10.3642    1.1486    0.0000 H       1  UNL1        0.0856
     84 H           4.5626   -2.9422    0.0000 H       1  UNL1        0.2923
     85 H           6.3683    2.4740    0.0000 H       1  UNL1        0.0856
     86 H          10.1607    3.3520    0.0000 H       1  UNL1        0.0355
     87 H           9.7595    2.6632    0.0000 H       1  UNL1        0.0355
     88 H           5.4322    3.3952    0.0000 H       1  UNL1        0.0355
     89 H           5.8280    2.7034    0.0000 H       1  UNL1        0.0355
     90 H          10.8792   -4.5435    0.0000 H       1  UNL1        0.2923
     91 H          12.6175   -2.9302    0.0000 H       1  UNL1        0.2923
     92 H          12.1001    2.1419    0.0000 H       1  UNL1        0.0658
     93 H          10.7065    4.5773    0.0000 H       1  UNL1        0.0621
     94 H          12.6344    1.4498    0.0000 H       1  UNL1        0.2952
     95 H           7.4498    4.4698    0.0000 H       1  UNL1        0.0658
     96 H           4.6440    4.4806    0.0000 H       1  UNL1        0.0621
     97 H          12.1126    5.3818    0.0000 H       1  UNL1        0.0655
     98 H           8.3163    4.5865    0.0000 H       1  UNL1        0.2952
     99 H           4.6502    6.1006    0.0000 H       1  UNL1        0.0655
    100 H          14.3727    3.0631    0.0000 H       1  UNL1        0.2923
    101 H          13.8447    5.3752    0.0000 H       1  UNL1        0.2923
    102 H           7.7883    6.8985    0.0000 H       1  UNL1        0.2923
    103 H           5.5220    7.5973    0.0000 H       1  UNL1        0.2923
@<TRIPOS>BOND
     1     1    26    1
     2     1    27    1
     3     2    27    1
     4     2    35    1
     5     3    22    1
     6     3    76    1
     7     4    23    1
     8     4    77    1
     9     5    24    1
    10     5    78    1
    11     6    37    1
    12    45     6    1
    13     7    33    1
    14     7    81    1
    15     8    42    1
    16    47     8    1
    17     9    39    1
    18     9    84    1
    19    10    37    2
    20    11    42    2
    21    12    43    1
    22    12    90    1
    23    13    46    1
    24    13    91    1
    25    14    50    1
    26    14    94    1
    27    15    50    2
    28    16    52    1
    29    16    98    1
    30    17    52    2
    31    18    58    1
    32    18   100    1
    33    19    60    1
    34    19   101    1
    35    20    61    1
    36    20   102    1
    37    21    63    1
    38    21   103    1
    39    22    23    1
    40    22    24    1
    41    22    64    1
    42    23    26    1
    43    23    65    1
    44    24    27    1
    45    24    66    1
    46    25    28    1
    47    25    29    1
    48    25    32    1
    49    25    67    1
    50    26    33    1
    51    26    68    1
    52    27    69    1
    53    28    31    1
    54    28    37    1
    55    28    70    1
    56    29    30   ar
    57    29    34   ar
    58    30    36    1
    59    30    38   ar
    60    31    36    2
    61    31    42    1
    62    32    40   ar
    63    32    41   ar
    64    33    71    1
    65    33    72    1
    66    34    35   ar
    67    34    73    1
    68    35    39   ar
    69    36    74    1
    70    38    39   ar
    71    38    75    1
    72    40    43   ar
    73    40    79    1
    74    41    44   ar
    75    41    80    1
    76    43    46   ar
    77    44    46   ar
    78    44    82    1
    79    45    48    1
    80    45    50    1
    81    45    83    1
    82    47    49    1
    83    47    52    1
    84    47    85    1
    85    48    51    1
    86    48    86    1
    87    48    87    1
    88    49    53    1
    89    49    88    1
    90    49    89    1
    91    51    54   ar
    92    51    55   ar
    93    53    56   ar
    94    53    57   ar
    95    54    58   ar
    96    54    92    1
    97    55    59   ar
    98    55    93    1
    99    56    61   ar
   100    56    95    1
   101    57    62   ar
   102    57    96    1
   103    58    60   ar
   104    59    60   ar
   105    59    97    1
   106    61    63   ar
   107    62    63   ar
   108    62    99    1
