@<TRIPOS>MOLECULE
IMPHY001082
 33 33 0 0 0
SMALL
GASTEIGER

@<TRIPOS>ATOM
      1 O           3.4030    1.4050    0.0000 O.3     1  UNL1       -0.4880
      2 O           2.5369   -4.0950    0.0000 O.3     1  UNL1       -0.3947
      3 C           3.4030   -1.5950    0.0000 C.ar    1  UNL1       -0.0450
      4 C           3.4030   -2.5950    0.0000 C.3     1  UNL1       -0.0044
      5 C           4.2690   -1.0950    0.0000 C.ar    1  UNL1       -0.0550
      6 C           2.5369   -1.0950    0.0000 C.ar    1  UNL1       -0.0550
      7 C           3.4030    0.4050    0.0000 C.ar    1  UNL1        0.1210
      8 C           2.5369   -3.0950    0.0000 C.3     1  UNL1        0.0482
      9 C           4.2690   -0.0950    0.0000 C.ar    1  UNL1       -0.0197
     10 C           2.5369   -0.0950    0.0000 C.ar    1  UNL1       -0.0197
     11 C           4.2690    1.9050    0.0000 C.3     1  UNL1        0.1080
     12 C           4.2690    2.9050    0.0000 C.2     1  UNL1       -0.0484
     13 C           5.1350    3.4050    0.0000 C.2     1  UNL1       -0.0765
     14 C           5.1350    4.4050    0.0000 C.3     1  UNL1       -0.0439
     15 C           6.0010    2.9050    0.0000 C.3     1  UNL1       -0.0439
     16 H           3.6150   -3.1776    0.0000 H       1  UNL1        0.0335
     17 H           4.0135   -2.4873    0.0000 H       1  UNL1        0.0335
     18 H           4.8059   -1.4050    0.0000 H       1  UNL1        0.0621
     19 H           2.0000   -1.4050    0.0000 H       1  UNL1        0.0621
     20 H           2.3249   -2.5124    0.0000 H       1  UNL1        0.0560
     21 H           1.9264   -3.2027    0.0000 H       1  UNL1        0.0560
     22 H           4.8059    0.2150    0.0000 H       1  UNL1        0.0654
     23 H           2.0000    0.2150    0.0000 H       1  UNL1        0.0654
     24 H           4.4810    1.3224    0.0000 H       1  UNL1        0.0742
     25 H           4.8796    2.0127    0.0000 H       1  UNL1        0.0742
     26 H           3.7320    3.2150    0.0000 H       1  UNL1        0.0605
     27 H           5.6910    2.3681    0.0000 H       1  UNL1        0.0274
     28 H           6.5380    2.5950    0.0000 H       1  UNL1        0.0274
     29 H           6.3110    3.4419    0.0000 H       1  UNL1        0.0274
     30 H           5.7550    4.4050    0.0000 H       1  UNL1        0.0274
     31 H           5.1350    5.0250    0.0000 H       1  UNL1        0.0274
     32 H           4.5150    4.4050    0.0000 H       1  UNL1        0.0274
     33 H           2.0000   -4.4050    0.0000 H       1  UNL1        0.2094
@<TRIPOS>BOND
     1     1     7    1
     2     1    11    1
     3     2     8    1
     4     2    33    1
     5     3     4    1
     6     3     5   ar
     7     3     6   ar
     8     4     8    1
     9     4    16    1
    10     4    17    1
    11     5     9   ar
    12     5    18    1
    13     6    10   ar
    14     6    19    1
    15     7     9   ar
    16     7    10   ar
    17     8    20    1
    18     8    21    1
    19     9    22    1
    20    10    23    1
    21    11    12    1
    22    11    24    1
    23    11    25    1
    24    12    13    2
    25    12    26    1
    26    13    14    1
    27    13    15    1
    28    14    30    1
    29    14    31    1
    30    14    32    1
    31    15    27    1
    32    15    28    1
    33    15    29    1
