@<TRIPOS>MOLECULE
IMPHY012138
 36 36 0 0 0
SMALL
GASTEIGER

@<TRIPOS>ATOM
      1 O           8.9282   -1.0000    0.0000 O.3     1  UNL1       -0.4613
      2 O          10.6603   -1.0000    0.0000 O.2     1  UNL1       -0.2508
      3 C           8.0622   -0.5000    0.0000 C.3     1  UNL1        0.1031
      4 C           7.1962   -1.0000    0.0000 C.3     1  UNL1       -0.0157
      5 C           8.0622    0.5000    0.0000 C.3     1  UNL1       -0.0152
      6 C           6.3301   -0.5000    0.0000 C.3     1  UNL1       -0.0497
      7 C           5.4641   -1.0000    0.0000 C.3     1  UNL1       -0.0529
      8 C           8.9282    1.0000    0.0000 C.3     1  UNL1       -0.0396
      9 C           4.5981   -0.5000    0.0000 C.3     1  UNL1       -0.0531
     10 C           9.7942    0.5000    0.0000 C.3     1  UNL1        0.0451
     11 C           3.7320   -1.0000    0.0000 C.3     1  UNL1       -0.0533
     12 C           9.7942   -0.5000    0.0000 C.2     1  UNL1        0.3073
     13 C           2.8660   -0.5000    0.0000 C.3     1  UNL1       -0.0559
     14 C           2.0000   -1.0000    0.0000 C.3     1  UNL1       -0.0653
     15 H           8.0622   -1.1200    0.0000 H       1  UNL1        0.0734
     16 H           6.7976   -1.4750    0.0000 H       1  UNL1        0.0301
     17 H           7.5947   -1.4750    0.0000 H       1  UNL1        0.0301
     18 H           7.8501    1.0826    0.0000 H       1  UNL1        0.0301
     19 H           7.4516    0.3923    0.0000 H       1  UNL1        0.0301
     20 H           6.7287   -0.0251    0.0000 H       1  UNL1        0.0266
     21 H           5.9316   -0.0251    0.0000 H       1  UNL1        0.0266
     22 H           5.0656   -1.4750    0.0000 H       1  UNL1        0.0265
     23 H           5.8626   -1.4750    0.0000 H       1  UNL1        0.0265
     24 H           9.3267    1.4750    0.0000 H       1  UNL1        0.0272
     25 H           8.5297    1.4750    0.0000 H       1  UNL1        0.0272
     26 H           4.9966   -0.0251    0.0000 H       1  UNL1        0.0265
     27 H           4.1996   -0.0251    0.0000 H       1  UNL1        0.0265
     28 H          10.4048    0.3923    0.0000 H       1  UNL1        0.0377
     29 H          10.0063    1.0826    0.0000 H       1  UNL1        0.0377
     30 H           3.3335   -1.4750    0.0000 H       1  UNL1        0.0265
     31 H           4.1306   -1.4750    0.0000 H       1  UNL1        0.0265
     32 H           3.2646   -0.0251    0.0000 H       1  UNL1        0.0263
     33 H           2.4675   -0.0251    0.0000 H       1  UNL1        0.0263
     34 H           1.6900   -0.4631    0.0000 H       1  UNL1        0.0230
     35 H           1.4631   -1.3100    0.0000 H       1  UNL1        0.0230
     36 H           2.3100   -1.5369    0.0000 H       1  UNL1        0.0230
@<TRIPOS>BOND
     1     1     3    1
     2     1    12    1
     3     2    12    2
     4     3     4    1
     5     3     5    1
     6     3    15    1
     7     4     6    1
     8     4    16    1
     9     4    17    1
    10     5     8    1
    11     5    18    1
    12     5    19    1
    13     6     7    1
    14     6    20    1
    15     6    21    1
    16     7     9    1
    17     7    22    1
    18     7    23    1
    19     8    10    1
    20     8    24    1
    21     8    25    1
    22     9    11    1
    23     9    26    1
    24     9    27    1
    25    10    12    1
    26    10    28    1
    27    10    29    1
    28    11    13    1
    29    11    30    1
    30    11    31    1
    31    13    14    1
    32    13    32    1
    33    13    33    1
    34    14    34    1
    35    14    35    1
    36    14    36    1
