@<TRIPOS>MOLECULE
IMPHY003144
 45 47 0 0 0
SMALL
GASTEIGER

@<TRIPOS>ATOM
      1 O           7.8167    1.8592    0.0000 O.3     1  UNL1       -0.5052
      2 O           9.5984   -1.1995    0.0000 O.3     1  UNL1       -0.5059
      3 O           9.5945    1.8488    0.0000 O.2     1  UNL1       -0.2918
      4 O           6.0682    1.8246    0.0000 O.2     1  UNL1       -0.2864
      5 O           6.0682   -2.1754    0.0000 O.2     1  UNL1       -0.2866
      6 O           4.3198    1.8592    0.0000 O.3     1  UNL1       -0.5059
      7 O           2.5381   -1.1995    0.0000 O.3     1  UNL1       -0.5066
      8 C          11.3304    0.8554    0.0000 C.3     1  UNL1       -0.0460
      9 C           6.9343    0.3246    0.0000 C.ar    1  UNL1        0.0755
     10 C          10.4663    0.3521    0.0000 C.3     1  UNL1        0.0107
     11 C           6.9343   -0.6754    0.0000 C.ar    1  UNL1        0.0401
     12 C           8.7343    0.3454    0.0000 C.ar    1  UNL1        0.1008
     13 C          12.1984    0.3588    0.0000 C.3     1  UNL1       -0.0529
     14 C           7.8282    0.8593    0.0000 C.ar    1  UNL1        0.1423
     15 C           5.2022    0.3246    0.0000 C.ar    1  UNL1        0.0748
     16 C           9.5984    0.8488    0.0000 C.2     1  UNL1        0.1702
     17 C           5.2022   -0.6754    0.0000 C.ar    1  UNL1        0.0400
     18 C           6.0682    0.8246    0.0000 C.2     1  UNL1        0.2015
     19 C           6.0682   -1.1754    0.0000 C.2     1  UNL1        0.1950
     20 C           8.7343   -0.6962    0.0000 C.ar    1  UNL1        0.1316
     21 C           7.8282   -1.2100    0.0000 C.ar    1  UNL1       -0.0077
     22 C          13.0625    0.8621    0.0000 C.3     1  UNL1       -0.0559
     23 C           4.3083    0.8593    0.0000 C.ar    1  UNL1        0.1318
     24 C           4.3083   -1.2100    0.0000 C.ar    1  UNL1       -0.0084
     25 C          13.9304    0.3655    0.0000 C.3     1  UNL1       -0.0653
     26 C           3.4022   -0.6962    0.0000 C.ar    1  UNL1        0.1210
     27 C           3.4022    0.3454    0.0000 C.ar    1  UNL1        0.0221
     28 H          11.7271    1.3319    0.0000 H       1  UNL1        0.0269
     29 H          10.9301    1.3288    0.0000 H       1  UNL1        0.0269
     30 H          10.0696   -0.1244    0.0000 H       1  UNL1        0.0345
     31 H          10.8667   -0.1213    0.0000 H       1  UNL1        0.0345
     32 H          11.8017   -0.1177    0.0000 H       1  UNL1        0.0265
     33 H          12.5987   -0.1146    0.0000 H       1  UNL1        0.0265
     34 H          13.4591    1.3386    0.0000 H       1  UNL1        0.0263
     35 H          12.6621    1.3355    0.0000 H       1  UNL1        0.0263
     36 H           7.8210   -1.8300    0.0000 H       1  UNL1        0.0661
     37 H           4.3154   -1.8300    0.0000 H       1  UNL1        0.0661
     38 H          13.6225   -0.1727    0.0000 H       1  UNL1        0.0230
     39 H          14.4685    0.0575    0.0000 H       1  UNL1        0.0230
     40 H          14.2383    0.9036    0.0000 H       1  UNL1        0.0230
     41 H           2.8665    0.6575    0.0000 H       1  UNL1        0.0691
     42 H           8.3500    2.1754    0.0000 H       1  UNL1        0.2922
     43 H           9.5960   -1.8195    0.0000 H       1  UNL1        0.2922
     44 H           3.7865    2.1754    0.0000 H       1  UNL1        0.2922
     45 H           2.0000   -0.8916    0.0000 H       1  UNL1        0.2921
@<TRIPOS>BOND
     1     1    14    1
     2     1    42    1
     3     2    20    1
     4     2    43    1
     5     3    16    2
     6     4    18    2
     7     5    19    2
     8     6    23    1
     9     6    44    1
    10     7    26    1
    11     7    45    1
    12     8    10    1
    13     8    13    1
    14     8    28    1
    15     8    29    1
    16     9    11   ar
    17     9    14   ar
    18     9    18    1
    19    10    16    1
    20    10    30    1
    21    10    31    1
    22    11    19    1
    23    11    21   ar
    24    12    14   ar
    25    12    16    1
    26    12    20   ar
    27    13    22    1
    28    13    32    1
    29    13    33    1
    30    15    17   ar
    31    15    18    1
    32    15    23   ar
    33    17    19    1
    34    17    24   ar
    35    20    21   ar
    36    21    36    1
    37    22    25    1
    38    22    34    1
    39    22    35    1
    40    23    27   ar
    41    24    26   ar
    42    24    37    1
    43    25    38    1
    44    25    39    1
    45    25    40    1
    46    26    27   ar
    47    27    41    1
