@<TRIPOS>MOLECULE
IMPHY013819
 37 36 0 0 0
SMALL
GASTEIGER

@<TRIPOS>ATOM
      1 O           3.7320    1.5000    0.0000 O.3     1  UNL1       -0.3516
      2 O           4.5981    0.0000    0.0000 O.3     1  UNL1       -0.3516
      3 C           6.3301    1.0000    0.0000 C.3     1  UNL1       -0.0485
      4 C           7.1962    1.5000    0.0000 C.3     1  UNL1       -0.0529
      5 C           5.4641    1.5000    0.0000 C.3     1  UNL1       -0.0016
      6 C           8.0622    1.0000    0.0000 C.3     1  UNL1       -0.0533
      7 C           4.5981    1.0000    0.0000 C.3     1  UNL1        0.1591
      8 C           8.9282    1.5000    0.0000 C.3     1  UNL1       -0.0559
      9 C           9.7942    1.0000    0.0000 C.3     1  UNL1       -0.0653
     10 C           2.8660    1.0000    0.0000 C.3     1  UNL1        0.0478
     11 C           3.7320   -0.5000    0.0000 C.3     1  UNL1        0.0478
     12 C           2.0000    1.5000    0.0000 C.3     1  UNL1       -0.0415
     13 C           3.7320   -1.5000    0.0000 C.3     1  UNL1       -0.0415
     14 H           5.9316    0.5251    0.0000 H       1  UNL1        0.0267
     15 H           6.7287    0.5251    0.0000 H       1  UNL1        0.0267
     16 H           7.5947    1.9750    0.0000 H       1  UNL1        0.0265
     17 H           6.7976    1.9750    0.0000 H       1  UNL1        0.0265
     18 H           5.8626    1.9750    0.0000 H       1  UNL1        0.0314
     19 H           5.0656    1.9750    0.0000 H       1  UNL1        0.0314
     20 H           7.6636    0.5251    0.0000 H       1  UNL1        0.0265
     21 H           8.4607    0.5251    0.0000 H       1  UNL1        0.0265
     22 H           4.5981    1.6200    0.0000 H       1  UNL1        0.0909
     23 H           9.3267    1.9750    0.0000 H       1  UNL1        0.0263
     24 H           8.5297    1.9750    0.0000 H       1  UNL1        0.0263
     25 H           9.4842    0.4631    0.0000 H       1  UNL1        0.0230
     26 H          10.3312    0.6900    0.0000 H       1  UNL1        0.0230
     27 H          10.1042    1.5369    0.0000 H       1  UNL1        0.0230
     28 H           2.4675    0.5251    0.0000 H       1  UNL1        0.0558
     29 H           3.2646    0.5251    0.0000 H       1  UNL1        0.0558
     30 H           3.5200    0.0826    0.0000 H       1  UNL1        0.0558
     31 H           3.1215   -0.6077    0.0000 H       1  UNL1        0.0558
     32 H           2.3100    2.0369    0.0000 H       1  UNL1        0.0252
     33 H           1.4631    1.8100    0.0000 H       1  UNL1        0.0252
     34 H           1.6900    0.9631    0.0000 H       1  UNL1        0.0252
     35 H           3.1120   -1.5000    0.0000 H       1  UNL1        0.0252
     36 H           3.7320   -2.1200    0.0000 H       1  UNL1        0.0252
     37 H           4.3520   -1.5000    0.0000 H       1  UNL1        0.0252
@<TRIPOS>BOND
     1     1     7    1
     2     1    10    1
     3     2     7    1
     4     2    11    1
     5     3     4    1
     6     3     5    1
     7     3    14    1
     8     3    15    1
     9     4     6    1
    10     4    16    1
    11     4    17    1
    12     5     7    1
    13     5    18    1
    14     5    19    1
    15     6     8    1
    16     6    20    1
    17     6    21    1
    18     7    22    1
    19     8     9    1
    20     8    23    1
    21     8    24    1
    22     9    25    1
    23     9    26    1
    24     9    27    1
    25    10    12    1
    26    10    28    1
    27    10    29    1
    28    11    13    1
    29    11    30    1
    30    11    31    1
    31    12    32    1
    32    12    33    1
    33    12    34    1
    34    13    35    1
    35    13    36    1
    36    13    37    1
