@<TRIPOS>MOLECULE
IMPHY004288
 39 40 0 0 0
SMALL
GASTEIGER

@<TRIPOS>ATOM
      1 O           7.1260    1.1486    0.0000 O.3     1  UNL1       -0.3885
      2 O           2.1861   -0.2671    0.0000 O.2     1  UNL1       -0.2876
      3 C           5.3742    0.2488    0.0000 C.3     1  UNL1       -0.0018
      4 C           6.3189    0.5582    0.0000 C.3     1  UNL1        0.0670
      5 C           5.3792   -0.7512    0.0000 C.3     1  UNL1       -0.0139
      6 C           6.9065   -0.2436    0.0000 C.3     1  UNL1       -0.0234
      7 C           6.3269   -1.0512    0.0000 C.3     1  UNL1       -0.0436
      8 C           4.5893    0.8684    0.0000 C.3     1  UNL1       -0.0181
      9 C           4.6005   -1.3786    0.0000 C.2     1  UNL1       -0.0656
     10 C           6.0068    1.5083    0.0000 C.3     1  UNL1       -0.0358
     11 C           3.6155    0.6410    0.0000 C.2     1  UNL1       -0.0016
     12 C           3.6244   -1.1609    0.0000 C.2     1  UNL1       -0.0154
     13 C           4.8278   -2.3524    0.0000 C.3     1  UNL1       -0.0431
     14 C           3.1861   -0.2621    0.0000 C.2     1  UNL1        0.1820
     15 C           2.9881    1.4197    0.0000 C.2     1  UNL1       -0.0689
     16 C           3.3488    2.3524    0.0000 C.3     1  UNL1       -0.0434
     17 C           2.0000    1.2657    0.0000 C.3     1  UNL1       -0.0434
     18 H           5.5229    1.0857    0.0000 H       1  UNL1        0.0337
     19 H           5.5362   -1.5866    0.0000 H       1  UNL1        0.0349
     20 H           7.3694   -0.6560    0.0000 H       1  UNL1        0.0293
     21 H           7.3653    0.1734    0.0000 H       1  UNL1        0.0293
     22 H           6.0787   -1.6194    0.0000 H       1  UNL1        0.0272
     23 H           6.8658   -1.3578    0.0000 H       1  UNL1        0.0272
     24 H           5.0721    1.2574    0.0000 H       1  UNL1        0.0318
     25 H           4.3175    1.4256    0.0000 H       1  UNL1        0.0318
     26 H           6.5958    1.7018    0.0000 H       1  UNL1        0.0257
     27 H           5.8133    2.0973    0.0000 H       1  UNL1        0.0257
     28 H           5.4177    1.3148    0.0000 H       1  UNL1        0.0257
     29 H           7.6932    0.8983    0.0000 H       1  UNL1        0.2102
     30 H           3.2403   -1.6476    0.0000 H       1  UNL1        0.0655
     31 H           4.2241   -2.4934    0.0000 H       1  UNL1        0.0275
     32 H           4.9688   -2.9562    0.0000 H       1  UNL1        0.0275
     33 H           5.4316   -2.2114    0.0000 H       1  UNL1        0.0275
     34 H           3.9270    2.1288    0.0000 H       1  UNL1        0.0274
     35 H           3.5724    2.9306    0.0000 H       1  UNL1        0.0274
     36 H           2.7705    2.5760    0.0000 H       1  UNL1        0.0274
     37 H           1.9045    1.8783    0.0000 H       1  UNL1        0.0274
     38 H           1.3874    1.1703    0.0000 H       1  UNL1        0.0274
     39 H           2.0955    0.6531    0.0000 H       1  UNL1        0.0274
@<TRIPOS>BOND
     1     4     1    1
     2     1    29    1
     3     2    14    2
     4     3     4    1
     5     3     5    1
     6     3     8    1
     7     3    18    1
     8     4     6    1
     9     4    10    1
    10     5     7    1
    11     5     9    1
    12     5    19    1
    13     6     7    1
    14     6    20    1
    15     6    21    1
    16     7    22    1
    17     7    23    1
    18     8    11    1
    19     8    24    1
    20     8    25    1
    21     9    12    2
    22     9    13    1
    23    10    26    1
    24    10    27    1
    25    10    28    1
    26    11    14    1
    27    11    15    2
    28    12    14    1
    29    12    30    1
    30    13    31    1
    31    13    32    1
    32    13    33    1
    33    15    16    1
    34    15    17    1
    35    16    34    1
    36    16    35    1
    37    16    36    1
    38    17    37    1
    39    17    38    1
    40    17    39    1
