@<TRIPOS>MOLECULE
IMPHY005821
 39 40 0 0 0
SMALL
GASTEIGER

@<TRIPOS>ATOM
      1 C           4.1906    0.5000    0.0000 C.3     1  UNL1       -0.0110
      2 C           3.4088    1.1235    0.0000 C.3     1  UNL1       -0.0278
      3 C           4.1906   -0.5000    0.0000 C.3     1  UNL1       -0.0131
      4 C           2.4339    0.9010    0.0000 C.3     1  UNL1       -0.0439
      5 C           5.0846   -1.0347    0.0000 C.3     1  UNL1       -0.0423
      6 C           5.0846    1.0347    0.0000 C.2     1  UNL1       -0.0809
      7 C           3.4088   -1.1235    0.0000 C.2     1  UNL1       -0.0729
      8 C           5.9906   -0.5208    0.0000 C.3     1  UNL1       -0.0314
      9 C           3.1863    2.0984    0.0000 C.3     1  UNL1       -0.0593
     10 C           4.0323    1.9053    0.0000 C.3     1  UNL1       -0.0593
     11 C           2.0000   -0.0000    0.0000 C.3     1  UNL1       -0.0340
     12 C           5.9906    0.5208    0.0000 C.2     1  UNL1       -0.0762
     13 C           2.4339   -0.9010    0.0000 C.2     1  UNL1       -0.0847
     14 C           3.6313   -2.0984    0.0000 C.3     1  UNL1       -0.0435
     15 C           6.8547    1.0241    0.0000 C.3     1  UNL1       -0.0438
     16 H           4.2322    1.1186    0.0000 H       1  UNL1        0.0354
     17 H           4.2322   -1.1186    0.0000 H       1  UNL1        0.0351
     18 H           2.4339    1.5210    0.0000 H       1  UNL1        0.0274
     19 H           1.8294    1.0389    0.0000 H       1  UNL1        0.0274
     20 H           4.6800   -1.5044    0.0000 H       1  UNL1        0.0274
     21 H           5.4782   -1.5137    0.0000 H       1  UNL1        0.0274
     22 H           5.0774    1.6546    0.0000 H       1  UNL1        0.0575
     23 H           6.1997   -1.1045    0.0000 H       1  UNL1        0.0310
     24 H           6.6015   -0.4147    0.0000 H       1  UNL1        0.0310
     25 H           3.7908    2.2364    0.0000 H       1  UNL1        0.0235
     26 H           3.0483    2.7029    0.0000 H       1  UNL1        0.0235
     27 H           2.5818    1.9604    0.0000 H       1  UNL1        0.0235
     28 H           4.5170    1.5188    0.0000 H       1  UNL1        0.0235
     29 H           4.4189    2.3901    0.0000 H       1  UNL1        0.0235
     30 H           3.5476    2.2919    0.0000 H       1  UNL1        0.0235
     31 H           1.5153    0.3866    0.0000 H       1  UNL1        0.0308
     32 H           1.5153   -0.3866    0.0000 H       1  UNL1        0.0308
     33 H           2.0473   -1.3857    0.0000 H       1  UNL1        0.0572
     34 H           3.0269   -2.2364    0.0000 H       1  UNL1        0.0274
     35 H           3.7693   -2.7029    0.0000 H       1  UNL1        0.0274
     36 H           4.2358   -1.9604    0.0000 H       1  UNL1        0.0274
     37 H           7.1668    0.4884    0.0000 H       1  UNL1        0.0274
     38 H           7.3905    1.3362    0.0000 H       1  UNL1        0.0274
     39 H           6.5427    1.5599    0.0000 H       1  UNL1        0.0274
@<TRIPOS>BOND
     1     1     2    1
     2     1     3    1
     3     1     6    1
     4     1    16    1
     5     2     4    1
     6     2     9    1
     7     2    10    1
     8     3     5    1
     9     3     7    1
    10     3    17    1
    11     4    11    1
    12     4    18    1
    13     4    19    1
    14     5     8    1
    15     5    20    1
    16     5    21    1
    17     6    12    2
    18     6    22    1
    19     7    13    2
    20     7    14    1
    21     8    12    1
    22     8    23    1
    23     8    24    1
    24     9    25    1
    25     9    26    1
    26     9    27    1
    27    10    28    1
    28    10    29    1
    29    10    30    1
    30    11    13    1
    31    11    31    1
    32    11    32    1
    33    12    15    1
    34    13    33    1
    35    14    34    1
    36    14    35    1
    37    14    36    1
    38    15    37    1
    39    15    38    1
    40    15    39    1
