@<TRIPOS>MOLECULE
IMPHY012942
 68 71 0 0 0
SMALL
GASTEIGER

@<TRIPOS>ATOM
      1 O           4.6160   -1.8404    0.0000 O.3     1  UNL1       -0.4571
      2 O           6.8659   -1.7468    0.0000 O.3     1  UNL1       -0.3856
      3 O           2.7500    0.6596    0.0000 O.3     1  UNL1       -0.3879
      4 O           8.1461   -0.8645    0.0000 O.3     1  UNL1       -0.3889
      5 O           2.8839   -1.8404    0.0000 O.2     1  UNL1       -0.2450
      6 O           3.7796    5.3404    0.0000 O.3     1  UNL1       -0.4568
      7 O           2.0000    5.2471    0.0000 O.2     1  UNL1       -0.2456
      8 C           5.4820   -0.3404    0.0000 C.3     1  UNL1        0.0396
      9 C           5.4820    0.6596    0.0000 C.3     1  UNL1       -0.0180
     10 C           4.6160    1.1596    0.0000 C.3     1  UNL1        0.0184
     11 C           6.3759   -0.8750    0.0000 C.3     1  UNL1        0.0980
     12 C           4.6160   -0.8404    0.0000 C.3     1  UNL1        0.1143
     13 C           3.7500    0.6596    0.0000 C.3     1  UNL1        0.0757
     14 C           6.3759    1.1943    0.0000 C.3     1  UNL1       -0.0462
     15 C           3.7500   -0.3404    0.0000 C.3     1  UNL1        0.0145
     16 C           7.2820   -0.3612    0.0000 C.3     1  UNL1        0.0843
     17 C           7.2820    0.6804    0.0000 C.3     1  UNL1       -0.0238
     18 C           5.3084   -1.3252    0.0000 C.3     1  UNL1       -0.0532
     19 C           5.1160    2.0256    0.0000 C.3     1  UNL1       -0.0532
     20 C           6.0231   -1.8107    0.0000 C.3     1  UNL1       -0.0330
     21 C           4.1160    2.0256    0.0000 C.2     1  UNL1       -0.0747
     22 C           2.9839    1.3024    0.0000 C.3     1  UNL1       -0.0351
     23 C           4.6160    2.8917    0.0000 C.2     1  UNL1       -0.0584
     24 C           3.7500   -2.3404    0.0000 C.2     1  UNL1        0.3395
     25 C           4.1160    3.7577    0.0000 C.2     1  UNL1       -0.0038
     26 C           3.7500   -3.3404    0.0000 C.ar    1  UNL1        0.0590
     27 C           4.5227    4.6712    0.0000 C.3     1  UNL1        0.1180
     28 C           3.1215    3.8622    0.0000 C.2     1  UNL1        0.0289
     29 C           2.8839   -3.8404    0.0000 C.ar    1  UNL1       -0.0478
     30 C           4.6160   -3.8404    0.0000 C.ar    1  UNL1       -0.0478
     31 C           2.9136    4.8404    0.0000 C.2     1  UNL1        0.3326
     32 C           2.8839   -4.8404    0.0000 C.ar    1  UNL1       -0.0610
     33 C           4.6160   -4.8404    0.0000 C.ar    1  UNL1       -0.0610
     34 C           3.7500   -5.3404    0.0000 C.ar    1  UNL1       -0.0617
     35 H           5.4755    1.5096    0.0000 H       1  UNL1        0.0317
     36 H           4.0790   -1.1504    0.0000 H       1  UNL1        0.0741
     37 H           6.7696    1.6733    0.0000 H       1  UNL1        0.0269
     38 H           5.9714    1.6641    0.0000 H       1  UNL1        0.0269
     39 H           3.1394   -0.2327    0.0000 H       1  UNL1        0.0329
     40 H           3.5379   -0.9230    0.0000 H       1  UNL1        0.0329
     41 H           7.8196   -0.0522    0.0000 H       1  UNL1        0.0622
     42 H           7.8929    0.5743    0.0000 H       1  UNL1        0.0291
     43 H           7.4911    1.2641    0.0000 H       1  UNL1        0.0291
     44 H           4.6979   -1.2176    0.0000 H       1  UNL1        0.0237
     45 H           5.2008   -1.9358    0.0000 H       1  UNL1        0.0237
     46 H           5.9191   -1.4328    0.0000 H       1  UNL1        0.0237
     47 H           5.6529    1.7156    0.0000 H       1  UNL1        0.0239
     48 H           5.4260    2.5626    0.0000 H       1  UNL1        0.0239
     49 H           4.5790    2.3356    0.0000 H       1  UNL1        0.0239
     50 H           5.4430   -1.5920    0.0000 H       1  UNL1        0.0258
     51 H           5.8044   -2.3908    0.0000 H       1  UNL1        0.0258
     52 H           6.6032   -2.0295    0.0000 H       1  UNL1        0.0258
     53 H           3.5334    2.2378    0.0000 H       1  UNL1        0.0579
     54 H           3.3824    1.7774    0.0000 H       1  UNL1        0.0258
     55 H           2.5090    1.7009    0.0000 H       1  UNL1        0.0258
     56 H           2.5854    0.8275    0.0000 H       1  UNL1        0.0258
     57 H           7.4859   -1.7540    0.0000 H       1  UNL1        0.2103
     58 H           2.4400    0.1227    0.0000 H       1  UNL1        0.2102
     59 H           8.6842   -0.5566    0.0000 H       1  UNL1        0.2099
     60 H           5.2360    2.8917    0.0000 H       1  UNL1        0.0618
     61 H           5.0597    4.3612    0.0000 H       1  UNL1        0.0749
     62 H           4.8871    5.1728    0.0000 H       1  UNL1        0.0749
     63 H           2.7066    3.4015    0.0000 H       1  UNL1        0.0693
     64 H           2.3470   -3.5304    0.0000 H       1  UNL1        0.0626
     65 H           5.1529   -3.5304    0.0000 H       1  UNL1        0.0626
     66 H           2.3470   -5.1504    0.0000 H       1  UNL1        0.0618
     67 H           5.1529   -5.1504    0.0000 H       1  UNL1        0.0618
     68 H           3.7500   -5.9604    0.0000 H       1  UNL1        0.0618
@<TRIPOS>BOND
     1    12     1    1
     2     1    24    1
     3    11     2    1
     4     2    57    1
     5    13     3    1
     6     3    58    1
     7    16     4    1
     8     4    59    1
     9     5    24    2
    10     6    27    1
    11     6    31    1
    12     7    31    2
    13     8     9    1
    14     8    11    1
    15     8    12    1
    16     8    18    1
    17     9    10    1
    18     9    14    1
    19     9    35    1
    20    10    13    1
    21    10    19    1
    22    10    21    1
    23    11    16    1
    24    11    20    1
    25    12    15    1
    26    12    36    1
    27    13    15    1
    28    13    22    1
    29    14    17    1
    30    14    37    1
    31    14    38    1
    32    15    39    1
    33    15    40    1
    34    16    17    1
    35    16    41    1
    36    17    42    1
    37    17    43    1
    38    18    44    1
    39    18    45    1
    40    18    46    1
    41    19    47    1
    42    19    48    1
    43    19    49    1
    44    20    50    1
    45    20    51    1
    46    20    52    1
    47    21    23    2
    48    21    53    1
    49    22    54    1
    50    22    55    1
    51    22    56    1
    52    23    25    1
    53    23    60    1
    54    24    26    1
    55    25    27    1
    56    25    28    2
    57    26    29   ar
    58    26    30   ar
    59    27    61    1
    60    27    62    1
    61    28    31    1
    62    28    63    1
    63    29    32   ar
    64    29    64    1
    65    30    33   ar
    66    30    65    1
    67    32    34   ar
    68    32    66    1
    69    33    34   ar
    70    33    67    1
    71    34    68    1
