@<TRIPOS>MOLECULE
IMPHY017035
 24 24 0 0 0
SMALL
GASTEIGER

@<TRIPOS>ATOM
      1 O           2.0463   -0.7196    0.0000 O.3     1  UNL1       -0.5032
      2 O           2.0463    1.1482    0.0000 O.2     1  UNL1       -0.2840
      3 C           6.1379    0.2143    0.0000 C.3     1  UNL1       -0.0215
      4 C           5.1379    0.2143    0.0000 C.ar    1  UNL1       -0.0446
      5 C           6.6379   -0.6517    0.0000 C.3     1  UNL1       -0.0587
      6 C           6.6379    1.0804    0.0000 C.3     1  UNL1       -0.0587
      7 C           4.7041   -0.6866    0.0000 C.ar    1  UNL1       -0.0548
      8 C           4.7041    1.1153    0.0000 C.ar    1  UNL1       -0.0546
      9 C           3.7291   -0.9092    0.0000 C.ar    1  UNL1       -0.0161
     10 C           3.7291    1.3378    0.0000 C.ar    1  UNL1       -0.0110
     11 C           2.9473   -0.2857    0.0000 C.ar    1  UNL1        0.1635
     12 C           2.9473    0.7143    0.0000 C.ar    1  UNL1        0.2200
     13 H           5.8279   -0.3226    0.0000 H       1  UNL1        0.0343
     14 H           6.1010   -0.9617    0.0000 H       1  UNL1        0.0235
     15 H           6.9479   -1.1886    0.0000 H       1  UNL1        0.0235
     16 H           7.1749   -0.3417    0.0000 H       1  UNL1        0.0235
     17 H           7.1749    0.7704    0.0000 H       1  UNL1        0.0235
     18 H           6.9479    1.6173    0.0000 H       1  UNL1        0.0235
     19 H           6.1010    1.3904    0.0000 H       1  UNL1        0.0235
     20 H           5.0906   -1.1714    0.0000 H       1  UNL1        0.0622
     21 H           5.0906    1.6000    0.0000 H       1  UNL1        0.0622
     22 H           3.5912   -1.5136    0.0000 H       1  UNL1        0.0655
     23 H           3.5912    1.9423    0.0000 H       1  UNL1        0.0657
     24 H           2.0000   -1.3378    0.0000 H       1  UNL1        0.2923
@<TRIPOS>BOND
     1     1    11    1
     2     1    24    1
     3     2    12    2
     4     3     4    1
     5     3     5    1
     6     3     6    1
     7     3    13    1
     8     4     7   ar
     9     4     8   ar
    10     5    14    1
    11     5    15    1
    12     5    16    1
    13     6    17    1
    14     6    18    1
    15     6    19    1
    16     7     9   ar
    17     7    20    1
    18     8    10   ar
    19     8    21    1
    20     9    11   ar
    21     9    22    1
    22    10    12   ar
    23    10    23    1
    24    11    12   ar
