@<TRIPOS>MOLECULE
IMPHY016904
 76 80 0 0 0
SMALL
GASTEIGER

@<TRIPOS>ATOM
      1 O           8.0622   -3.7053    0.0000 O.3     1  UNL1       -0.3366
      2 O           6.3301   -1.7053    0.0000 O.3     1  UNL1       -0.3301
      3 O           8.9282   -2.2053    0.0000 O.3     1  UNL1       -0.3431
      4 O           8.0622   -1.7053    0.0000 O.3     1  UNL1       -0.4604
      5 O           6.3301   -4.7053    0.0000 O.3     1  UNL1       -0.3863
      6 O           4.5981   -3.7053    0.0000 O.3     1  UNL1       -0.3864
      7 O           9.7942   -4.7053    0.0000 O.3     1  UNL1       -0.3841
      8 O          11.5263   -3.7053    0.0000 O.3     1  UNL1       -0.3864
      9 O          11.5263   -1.7053    0.0000 O.3     1  UNL1       -0.3866
     10 O           3.7320   -2.2053    0.0000 O.3     1  UNL1       -0.4621
     11 O           6.3159    1.3738    0.0000 O.3     1  UNL1       -0.5056
     12 O           2.8660   -0.7053    0.0000 O.2     1  UNL1       -0.2512
     13 O          10.6822    0.8538    0.0000 O.2     1  UNL1       -0.2866
     14 O           7.2259    2.8672    0.0000 O.2     1  UNL1       -0.2865
     15 O          11.6158    4.3954    0.0000 O.3     1  UNL1       -0.5067
     16 C           7.1962   -3.2053    0.0000 C.3     1  UNL1        0.1519
     17 C           6.3301   -3.7053    0.0000 C.3     1  UNL1        0.1156
     18 C           5.4641   -3.2053    0.0000 C.3     1  UNL1        0.1130
     19 C           8.9282   -3.2053    0.0000 C.3     1  UNL1        0.1885
     20 C           7.1962   -2.2053    0.0000 C.3     1  UNL1        0.2312
     21 C           5.4641   -2.2053    0.0000 C.3     1  UNL1        0.1250
     22 C           9.7942   -3.7053    0.0000 C.3     1  UNL1        0.1341
     23 C          10.6603   -3.2053    0.0000 C.3     1  UNL1        0.1140
     24 C          10.6603   -2.2053    0.0000 C.3     1  UNL1        0.1095
     25 C           9.7942   -1.7053    0.0000 C.3     1  UNL1        0.0873
     26 C           4.5981   -1.7053    0.0000 C.3     1  UNL1        0.1212
     27 C           9.7942   -0.7053    0.0000 C.3     1  UNL1       -0.0361
     28 C           8.0622   -0.7053    0.0000 C.ar    1  UNL1        0.1311
     29 C           7.1621   -0.1811    0.0000 C.ar    1  UNL1        0.0334
     30 C           8.9622   -0.1811    0.0000 C.ar    1  UNL1       -0.0078
     31 C           8.9502    0.8605    0.0000 C.ar    1  UNL1        0.0401
     32 C           7.1742    0.8605    0.0000 C.ar    1  UNL1        0.1347
     33 C           8.0861    1.3638    0.0000 C.ar    1  UNL1        0.0749
     34 C           2.8660   -1.7053    0.0000 C.2     1  UNL1        0.3040
     35 C           6.2923   -0.6744    0.0000 C.3     1  UNL1       -0.0327
     36 C           9.8181    1.3572    0.0000 C.2     1  UNL1        0.1948
     37 C           8.0900    2.3638    0.0000 C.2     1  UNL1        0.1980
     38 C           9.8220    2.3572    0.0000 C.ar    1  UNL1        0.0365
     39 C           8.9579    2.8605    0.0000 C.ar    1  UNL1        0.0334
     40 C           2.0000   -2.2053    0.0000 C.3     1  UNL1        0.0332
     41 C          10.7339    2.8605    0.0000 C.ar    1  UNL1       -0.0087
     42 C           8.9459    3.9020    0.0000 C.ar    1  UNL1       -0.0468
     43 C          10.7460    3.9020    0.0000 C.ar    1  UNL1        0.1176
     44 C           9.8459    4.4263    0.0000 C.ar    1  UNL1       -0.0195
     45 H           7.1962   -3.8253    0.0000 H       1  UNL1        0.0687
     46 H           5.7932   -4.0153    0.0000 H       1  UNL1        0.0648
     47 H           5.4641   -3.8253    0.0000 H       1  UNL1        0.0647
     48 H           8.9282   -3.8253    0.0000 H       1  UNL1        0.0938
     49 H           7.7331   -2.5153    0.0000 H       1  UNL1        0.1084
     50 H           5.4641   -1.5853    0.0000 H       1  UNL1        0.0658
     51 H          10.3312   -4.0153    0.0000 H       1  UNL1        0.0671
     52 H          10.6603   -3.8253    0.0000 H       1  UNL1        0.0648
     53 H          11.1972   -2.5153    0.0000 H       1  UNL1        0.0646
     54 H           9.2573   -1.3953    0.0000 H       1  UNL1        0.0621
     55 H           4.9966   -1.2304    0.0000 H       1  UNL1        0.0724
     56 H           4.1996   -1.2304    0.0000 H       1  UNL1        0.0724
     57 H          10.4142   -0.7053    0.0000 H       1  UNL1        0.0255
     58 H           9.7942   -0.0853    0.0000 H       1  UNL1        0.0255
     59 H           9.1742   -0.7053    0.0000 H       1  UNL1        0.0255
     60 H           5.7932   -5.0153    0.0000 H       1  UNL1        0.2100
     61 H           4.5981   -4.3253    0.0000 H       1  UNL1        0.2100
     62 H          10.3312   -5.0153    0.0000 H       1  UNL1        0.2101
     63 H          12.0632   -3.3953    0.0000 H       1  UNL1        0.2100
     64 H          12.0632   -2.0153    0.0000 H       1  UNL1        0.2100
     65 H           9.5016   -0.4869    0.0000 H       1  UNL1        0.0661
     66 H           5.9864   -0.1351    0.0000 H       1  UNL1        0.0280
     67 H           5.7530   -0.9802    0.0000 H       1  UNL1        0.0280
     68 H           6.5981   -1.2137    0.0000 H       1  UNL1        0.0280
     69 H           1.6900   -1.6684    0.0000 H       1  UNL1        0.0342
     70 H           1.4631   -2.5153    0.0000 H       1  UNL1        0.0342
     71 H           2.3100   -2.7423    0.0000 H       1  UNL1        0.0342
     72 H           5.7743    1.0721    0.0000 H       1  UNL1        0.2922
     73 H          11.2660    2.5422    0.0000 H       1  UNL1        0.0661
     74 H           8.4066    4.2079    0.0000 H       1  UNL1        0.0626
     75 H           9.8459    5.0463    0.0000 H       1  UNL1        0.0654
     76 H          11.6206    5.0153    0.0000 H       1  UNL1        0.2921
@<TRIPOS>BOND
     1    16     1    1
     2    19     1    1
     3     2    20    1
     4     2    21    1
     5     3    19    1
     6     3    25    1
     7    20     4    1
     8     4    28    1
     9    17     5    1
    10     5    60    1
    11    18     6    1
    12     6    61    1
    13    22     7    1
    14     7    62    1
    15    23     8    1
    16     8    63    1
    17    24     9    1
    18     9    64    1
    19    10    26    1
    20    10    34    1
    21    11    32    1
    22    11    72    1
    23    12    34    2
    24    13    36    2
    25    14    37    2
    26    15    43    1
    27    15    76    1
    28    16    17    1
    29    16    20    1
    30    16    45    1
    31    17    18    1
    32    17    46    1
    33    18    21    1
    34    18    47    1
    35    19    22    1
    36    19    48    1
    37    20    49    1
    38    21    26    1
    39    21    50    1
    40    22    23    1
    41    22    51    1
    42    23    24    1
    43    23    52    1
    44    24    25    1
    45    24    53    1
    46    25    27    1
    47    25    54    1
    48    26    55    1
    49    26    56    1
    50    27    57    1
    51    27    58    1
    52    27    59    1
    53    28    29   ar
    54    28    30   ar
    55    29    32   ar
    56    29    35    1
    57    30    31   ar
    58    30    65    1
    59    31    33   ar
    60    31    36    1
    61    32    33   ar
    62    33    37    1
    63    34    40    1
    64    35    66    1
    65    35    67    1
    66    35    68    1
    67    36    38    1
    68    37    39    1
    69    38    39   ar
    70    38    41   ar
    71    39    42   ar
    72    40    69    1
    73    40    70    1
    74    40    71    1
    75    41    43   ar
    76    41    73    1
    77    42    44   ar
    78    42    74    1
    79    43    44   ar
    80    44    75    1
