@<TRIPOS>MOLECULE
IMPHY014570
 58 63 0 0 0
SMALL
GASTEIGER

@<TRIPOS>ATOM
      1 O           6.1432   -0.2329    0.0000 O.3     1  UNL1       -0.3748
      2 O           6.5176    2.3581    0.0000 O.3     1  UNL1       -0.4612
      3 O           4.5155   -1.0031    0.0000 O.2     1  UNL1       -0.2721
      4 O           5.1878   -3.0722    0.0000 O.3     1  UNL1       -0.2756
      5 O           5.4043    3.6850    0.0000 O.2     1  UNL1       -0.2512
      6 N           2.9827    0.6535    0.0000 N.3     1  UNL1       -0.3011
      7 N           5.7756   -2.2632    0.0000 N.am    1  UNL1       -0.1476
      8 C           5.4096    0.7757    0.0000 C.3     1  UNL1        0.0290
      9 C           5.4096   -0.2243    0.0000 C.3     1  UNL1        0.0059
     10 C           6.2756    1.2757    0.0000 C.3     1  UNL1       -0.0218
     11 C           4.7883    0.5577    0.0000 C.3     1  UNL1        0.0202
     12 C           5.2877    1.4226    0.0000 C.3     1  UNL1        0.0019
     13 C           6.2756   -0.7243    0.0000 C.3     1  UNL1        0.1069
     14 C           4.2494   -0.3442    0.0000 C.3     1  UNL1        0.0085
     15 C           7.1416   -0.2243    0.0000 C.3     1  UNL1        0.0774
     16 C           7.1416    0.7757    0.0000 C.3     1  UNL1       -0.0214
     17 C           5.7516    1.7154    0.0000 C.3     1  UNL1        0.1076
     18 C           5.3968    0.4302    0.0000 C.3     1  UNL1        0.0526
     19 C           7.0846   -1.3121    0.0000 C.ar    1  UNL1       -0.0059
     20 C           5.4666   -1.3121    0.0000 C.2     1  UNL1        0.2562
     21 C           2.0000    0.4685    0.0000 C.3     1  UNL1       -0.0124
     22 C           5.1088    2.4814    0.0000 C.3     1  UNL1       -0.0271
     23 C           6.7756   -2.2632    0.0000 C.ar    1  UNL1        0.0686
     24 C           8.1000   -1.0799    0.0000 C.ar    1  UNL1       -0.0556
     25 C           7.4605   -3.0479    0.0000 C.ar    1  UNL1       -0.0377
     26 C           8.8029   -1.8486    0.0000 C.ar    1  UNL1       -0.0614
     27 C           6.3440    3.3430    0.0000 C.2     1  UNL1        0.3042
     28 C           8.4810   -2.8392    0.0000 C.ar    1  UNL1       -0.0599
     29 C           7.1100    3.9857    0.0000 C.3     1  UNL1        0.0332
     30 C           5.5945   -3.9857    0.0000 C.3     1  UNL1        0.0629
     31 H           4.9847   -0.9605    0.0000 H       1  UNL1        0.0337
     32 H           7.0117    1.7007    0.0000 H       1  UNL1        0.0312
     33 H           3.9406    0.4950    0.0000 H       1  UNL1        0.0469
     34 H           4.5849    1.9008    0.0000 H       1  UNL1        0.0341
     35 H           3.8441   -0.8134    0.0000 H       1  UNL1        0.0433
     36 H           4.6998   -0.7703    0.0000 H       1  UNL1        0.0433
     37 H           7.8777    0.2007    0.0000 H       1  UNL1        0.0610
     38 H           7.7522    0.6680    0.0000 H       1  UNL1        0.0293
     39 H           7.3536    1.3583    0.0000 H       1  UNL1        0.0293
     40 H           6.2594    1.3597    0.0000 H       1  UNL1        0.0737
     41 H           4.7857    0.5346    0.0000 H       1  UNL1        0.0563
     42 H           5.1284   -0.1287    0.0000 H       1  UNL1        0.0563
     43 H           1.8852    1.0777    0.0000 H       1  UNL1        0.0391
     44 H           1.3907    0.3537    0.0000 H       1  UNL1        0.0391
     45 H           2.1148   -0.1408    0.0000 H       1  UNL1        0.0391
     46 H           5.5837    2.8799    0.0000 H       1  UNL1        0.0265
     47 H           4.7102    2.9564    0.0000 H       1  UNL1        0.0265
     48 H           4.6338    2.0829    0.0000 H       1  UNL1        0.0265
     49 H           8.2848   -0.4880    0.0000 H       1  UNL1        0.0621
     50 H           7.2622   -3.6353    0.0000 H       1  UNL1        0.0637
     51 H           9.4089   -1.7173    0.0000 H       1  UNL1        0.0618
     52 H           8.8941   -3.3016    0.0000 H       1  UNL1        0.0618
     53 H           7.5085    3.5108    0.0000 H       1  UNL1        0.0342
     54 H           7.5850    4.3843    0.0000 H       1  UNL1        0.0342
     55 H           6.7115    4.4607    0.0000 H       1  UNL1        0.0342
     56 H           5.0281   -4.2379    0.0000 H       1  UNL1        0.0547
     57 H           5.8467   -4.5521    0.0000 H       1  UNL1        0.0547
     58 H           6.1609   -3.7336    0.0000 H       1  UNL1        0.0547
@<TRIPOS>BOND
     1     1    15    1
     2     1    18    1
     3    17     2    1
     4     2    27    1
     5     3    20    2
     6     4     7    1
     7     4    30    1
     8     5    27    2
     9     6    11    1
    10     6    14    1
    11     6    21    1
    12     7    20   am
    13     7    23    1
    14     8     9    1
    15     8    10    1
    16     8    14    1
    17     8    17    1
    18     9    11    1
    19     9    13    1
    20     9    31    1
    21    10    12    1
    22    10    16    1
    23    10    32    1
    24    11    12    1
    25    11    33    1
    26    12    18    1
    27    12    34    1
    28    13    15    1
    29    13    19    1
    30    13    20    1
    31    14    35    1
    32    14    36    1
    33    15    16    1
    34    15    37    1
    35    16    38    1
    36    16    39    1
    37    17    22    1
    38    17    40    1
    39    18    41    1
    40    18    42    1
    41    19    23   ar
    42    19    24   ar
    43    21    43    1
    44    21    44    1
    45    21    45    1
    46    22    46    1
    47    22    47    1
    48    22    48    1
    49    23    25   ar
    50    24    26   ar
    51    24    49    1
    52    25    28   ar
    53    25    50    1
    54    26    28   ar
    55    26    51    1
    56    27    29    1
    57    28    52    1
    58    29    53    1
    59    29    54    1
    60    29    55    1
    61    30    56    1
    62    30    57    1
    63    30    58    1
