@<TRIPOS>MOLECULE
IMPHY009459
 102 109 0 0 0
SMALL
GASTEIGER

@<TRIPOS>ATOM
      1 O           6.8671   -3.9488    0.0000 O.3     1  UNL1       -0.4601
      2 O           6.9488    3.1199    0.0000 O.3     1  UNL1       -0.4601
      3 O           5.1350   -3.9488    0.0000 O.3     1  UNL1       -0.3313
      4 O           6.1177    4.6395    0.0000 O.3     1  UNL1       -0.3313
      5 O           6.8671   -5.9488    0.0000 O.3     1  UNL1       -0.3829
      6 O           5.1941    2.1602    0.0000 O.3     1  UNL1       -0.3829
      7 O           5.1350   -6.9488    0.0000 O.3     1  UNL1       -0.3864
      8 O           3.4856    3.2000    0.0000 O.3     1  UNL1       -0.3864
      9 O           3.4030   -5.9488    0.0000 O.3     1  UNL1       -0.3865
     10 O           3.5319    5.1995    0.0000 O.3     1  UNL1       -0.3865
     11 O           8.6158   -3.9344    0.0000 O.2     1  UNL1       -0.2864
     12 O           8.6967    3.0651    0.0000 O.2     1  UNL1       -0.2864
     13 O          10.3636   -3.9893    0.0000 O.3     1  UNL1       -0.5060
     14 O          10.4454    3.0795    0.0000 O.3     1  UNL1       -0.5060
     15 O           2.5369   -4.4488    0.0000 O.3     1  UNL1       -0.3924
     16 O           6.1640    6.6390    0.0000 O.3     1  UNL1       -0.3924
     17 O          13.0428   -1.4580    0.0000 O.3     1  UNL1       -0.3904
     18 O          13.0652    0.4869    0.0000 O.3     1  UNL1       -0.3904
     19 C           8.6504   -0.9346    0.0000 C.3     1  UNL1        0.0216
     20 C           8.6620    0.0653    0.0000 C.3     1  UNL1        0.0216
     21 C           7.7787   -1.4246    0.0000 C.ar    1  UNL1       -0.0247
     22 C           7.8018    0.5753    0.0000 C.ar    1  UNL1       -0.0247
     23 C           9.5106   -1.4446    0.0000 C.ar    1  UNL1       -0.0244
     24 C           9.5338    0.5552    0.0000 C.ar    1  UNL1       -0.0244
     25 C           7.7671   -2.4245    0.0000 C.ar    1  UNL1        0.0679
     26 C           7.8134    1.5752    0.0000 C.ar    1  UNL1        0.0679
     27 C           9.4991   -2.4446    0.0000 C.ar    1  UNL1        0.0675
     28 C           9.5453    1.5552    0.0000 C.ar    1  UNL1        0.0675
     29 C           8.6273   -2.9345    0.0000 C.2     1  UNL1        0.2007
     30 C           8.6851    2.0652    0.0000 C.2     1  UNL1        0.2007
     31 C           6.0010   -4.4488    0.0000 C.3     1  UNL1        0.2308
     32 C           6.0946    3.6398    0.0000 C.3     1  UNL1        0.2308
     33 C           6.0010   -5.4488    0.0000 C.3     1  UNL1        0.1454
     34 C           5.2172    3.1599    0.0000 C.3     1  UNL1        0.1454
     35 C           6.8671   -2.9488    0.0000 C.ar    1  UNL1        0.1351
     36 C           6.9257    2.1202    0.0000 C.ar    1  UNL1        0.1351
     37 C          10.4107   -0.9203    0.0000 C.ar    1  UNL1       -0.0517
     38 C          10.4215    0.0103    0.0000 C.ar    1  UNL1       -0.0517
     39 C           5.1350   -5.9488    0.0000 C.3     1  UNL1        0.1152
     40 C           4.3630    3.6798    0.0000 C.3     1  UNL1        0.1152
     41 C           6.8910   -0.8796    0.0000 C.ar    1  UNL1       -0.0571
     42 C           6.9018    0.0510    0.0000 C.ar    1  UNL1       -0.0571
     43 C           4.2690   -5.4488    0.0000 C.3     1  UNL1        0.1120
     44 C           4.3861    4.6796    0.0000 C.3     1  UNL1        0.1120
     45 C           4.2690   -4.4488    0.0000 C.3     1  UNL1        0.1140
     46 C           5.2635    5.1594    0.0000 C.3     1  UNL1        0.1140
     47 C          10.3868   -2.9895    0.0000 C.ar    1  UNL1        0.1283
     48 C          10.4454    2.0795    0.0000 C.ar    1  UNL1        0.1283
     49 C          11.3108   -1.4446    0.0000 C.ar    1  UNL1       -0.0184
     50 C          11.3334    0.5136    0.0000 C.ar    1  UNL1       -0.0184
     51 C           5.9670   -2.4245    0.0000 C.ar    1  UNL1       -0.0191
     52 C           6.0137    1.6168    0.0000 C.ar    1  UNL1       -0.0191
     53 C           5.9790   -1.3830    0.0000 C.ar    1  UNL1       -0.0580
     54 C           6.0017    0.5753    0.0000 C.ar    1  UNL1       -0.0580
     55 C          11.2987   -2.4862    0.0000 C.ar    1  UNL1       -0.0141
     56 C          11.3454    1.5552    0.0000 C.ar    1  UNL1       -0.0141
     57 C           3.4030   -3.9488    0.0000 C.3     1  UNL1        0.0731
     58 C           5.2866    6.1592    0.0000 C.3     1  UNL1        0.0731
     59 C          12.1806   -0.9513    0.0000 C.3     1  UNL1        0.0694
     60 C          12.1916    0.0003    0.0000 C.3     1  UNL1        0.0694
     61 H           9.1909   -0.6309    0.0000 H       1  UNL1        0.0407
     62 H           8.1215   -0.2385    0.0000 H       1  UNL1        0.0407
     63 H           6.0010   -3.8288    0.0000 H       1  UNL1        0.1084
     64 H           6.0802    3.0200    0.0000 H       1  UNL1        0.1084
     65 H           6.0010   -6.0688    0.0000 H       1  UNL1        0.0683
     66 H           4.6733    2.8624    0.0000 H       1  UNL1        0.0683
     67 H           4.5981   -6.2588    0.0000 H       1  UNL1        0.0648
     68 H           3.8334    4.0022    0.0000 H       1  UNL1        0.0648
     69 H          10.4107   -0.3003    0.0000 H       1  UNL1        0.0624
     70 H          10.4071   -0.6096    0.0000 H       1  UNL1        0.0624
     71 H           6.9053   -0.2598    0.0000 H       1  UNL1        0.0621
     72 H           6.9018   -0.5690    0.0000 H       1  UNL1        0.0621
     73 H           3.7320   -5.1388    0.0000 H       1  UNL1        0.0647
     74 H           4.4004    5.2994    0.0000 H       1  UNL1        0.0647
     75 H           4.2690   -3.8288    0.0000 H       1  UNL1        0.0647
     76 H           5.8074    5.4569    0.0000 H       1  UNL1        0.0647
     77 H           5.4277   -2.7304    0.0000 H       1  UNL1        0.0654
     78 H           5.4816    1.9351    0.0000 H       1  UNL1        0.0654
     79 H           5.4470   -1.0647    0.0000 H       1  UNL1        0.0619
     80 H           5.4624    0.2694    0.0000 H       1  UNL1        0.0619
     81 H          11.8308   -2.8044    0.0000 H       1  UNL1        0.0658
     82 H          11.8848    1.8610    0.0000 H       1  UNL1        0.0658
     83 H           3.8015   -3.4739    0.0000 H       1  UNL1        0.0584
     84 H           3.0044   -3.4739    0.0000 H       1  UNL1        0.0584
     85 H           5.0881    6.7465    0.0000 H       1  UNL1        0.0584
     86 H           4.6737    6.0656    0.0000 H       1  UNL1        0.0584
     87 H          12.5828   -0.4795    0.0000 H       1  UNL1        0.0607
     88 H          11.7858   -0.4733    0.0000 H       1  UNL1        0.0607
     89 H          11.7858   -0.4684    0.0000 H       1  UNL1        0.0607
     90 H          12.5828   -0.4807    0.0000 H       1  UNL1        0.0607
     91 H           6.8671   -6.5688    0.0000 H       1  UNL1        0.2102
     92 H           4.6501    1.8627    0.0000 H       1  UNL1        0.2102
     93 H           4.5981   -7.2588    0.0000 H       1  UNL1        0.2100
     94 H           2.9560    3.5223    0.0000 H       1  UNL1        0.2100
     95 H           3.4030   -6.5688    0.0000 H       1  UNL1        0.2100
     96 H           3.5462    5.8193    0.0000 H       1  UNL1        0.2100
     97 H          10.8933   -4.3116    0.0000 H       1  UNL1        0.2922
     98 H          10.9823    3.3895    0.0000 H       1  UNL1        0.2922
     99 H           2.0000   -4.1388    0.0000 H       1  UNL1        0.2095
    100 H           6.1783    7.2588    0.0000 H       1  UNL1        0.2095
    101 H          13.5821   -1.1521    0.0000 H       1  UNL1        0.2098
    102 H          13.0748    1.1068    0.0000 H       1  UNL1        0.2098
@<TRIPOS>BOND
     1    31     1    1
     2     1    35    1
     3    32     2    1
     4     2    36    1
     5     3    31    1
     6     3    45    1
     7     4    32    1
     8     4    46    1
     9    33     5    1
    10     5    91    1
    11    34     6    1
    12     6    92    1
    13    39     7    1
    14     7    93    1
    15    40     8    1
    16     8    94    1
    17    43     9    1
    18     9    95    1
    19    44    10    1
    20    10    96    1
    21    11    29    2
    22    12    30    2
    23    13    47    1
    24    13    97    1
    25    14    48    1
    26    14    98    1
    27    15    57    1
    28    15    99    1
    29    16    58    1
    30    16   100    1
    31    17    59    1
    32    17   101    1
    33    18    60    1
    34    18   102    1
    35    19    20    1
    36    19    21    1
    37    19    23    1
    38    19    61    1
    39    20    22    1
    40    20    24    1
    41    20    62    1
    42    21    25   ar
    43    21    41   ar
    44    22    26   ar
    45    22    42   ar
    46    23    27   ar
    47    23    37   ar
    48    24    28   ar
    49    24    38   ar
    50    25    29    1
    51    25    35   ar
    52    26    30    1
    53    26    36   ar
    54    27    29    1
    55    27    47   ar
    56    28    30    1
    57    28    48   ar
    58    31    33    1
    59    31    63    1
    60    32    34    1
    61    32    64    1
    62    33    39    1
    63    33    65    1
    64    34    40    1
    65    34    66    1
    66    35    51   ar
    67    36    52   ar
    68    37    49   ar
    69    37    69    1
    70    38    50   ar
    71    38    70    1
    72    39    43    1
    73    39    67    1
    74    40    44    1
    75    40    68    1
    76    41    53   ar
    77    41    71    1
    78    42    54   ar
    79    42    72    1
    80    43    45    1
    81    43    73    1
    82    44    46    1
    83    44    74    1
    84    45    57    1
    85    45    75    1
    86    46    58    1
    87    46    76    1
    88    47    55   ar
    89    48    56   ar
    90    49    55   ar
    91    49    59    1
    92    50    56   ar
    93    50    60    1
    94    51    53   ar
    95    51    77    1
    96    52    54   ar
    97    52    78    1
    98    53    79    1
    99    54    80    1
   100    55    81    1
   101    56    82    1
   102    57    83    1
   103    57    84    1
   104    58    85    1
   105    58    86    1
   106    59    87    1
   107    59    88    1
   108    60    89    1
   109    60    90    1
