@<TRIPOS>MOLECULE
IMPHY009167
 58 61 0 0 0
SMALL
GASTEIGER

@<TRIPOS>ATOM
      1 O           5.1350   -1.1121    0.0000 O.3     1  UNL1       -0.3609
      2 O           2.5369   -0.6121    0.0000 O.3     1  UNL1       -0.3862
      3 O           2.5369   -2.6121    0.0000 O.3     1  UNL1       -0.3865
      4 O           4.2690   -3.6121    0.0000 O.3     1  UNL1       -0.3865
      5 O           6.0010   -3.6121    0.0000 O.3     1  UNL1       -0.3924
      6 O           6.0290    0.3533    0.0000 O.2     1  UNL1       -0.4615
      7 O           2.5369    0.3879    0.0000 O.3     1  UNL1       -0.5029
      8 O           2.5369    2.3879    0.0000 O.3     1  UNL1       -0.4885
      9 O           4.2690    3.3879    0.0000 O.3     1  UNL1       -0.5027
     10 O           6.0174    3.4225    0.0000 O.2     1  UNL1       -0.2863
     11 O          10.3914    3.9221    0.0000 O.3     1  UNL1       -0.4951
     12 C           3.4030   -1.1121    0.0000 C.3     1  UNL1        0.1139
     13 C           3.4030   -2.1121    0.0000 C.3     1  UNL1        0.1121
     14 C           4.2690   -0.6121    0.0000 C.3     1  UNL1        0.1194
     15 C           4.2690   -2.6121    0.0000 C.3     1  UNL1        0.1117
     16 C           5.1350   -2.1121    0.0000 C.3     1  UNL1        0.1108
     17 C           4.2690    0.3879    0.0000 C.ar    1  UNL1        0.0718
     18 C           6.0010   -2.6121    0.0000 C.3     1  UNL1        0.0729
     19 C           5.1350    0.8879    0.0000 C.ar    1  UNL1        0.1514
     20 C           3.4030    0.8879    0.0000 C.ar    1  UNL1        0.1716
     21 C           5.1350    1.8879    0.0000 C.ar    1  UNL1        0.1101
     22 C           3.4030    1.8879    0.0000 C.ar    1  UNL1        0.2044
     23 C           4.2690    2.3879    0.0000 C.ar    1  UNL1        0.1768
     24 C           6.0290    2.4226    0.0000 C.ar    1  UNL1        0.2038
     25 C           6.9350    1.9087    0.0000 C.ar    1  UNL1        0.0644
     26 C           6.9350    0.8671    0.0000 C.ar    1  UNL1        0.1039
     27 C           7.7991    2.4121    0.0000 C.ar    1  UNL1       -0.0110
     28 C           2.5369    3.3879    0.0000 C.3     1  UNL1        0.0791
     29 C           7.7953    3.4121    0.0000 C.ar    1  UNL1       -0.0504
     30 C           8.6671    1.9154    0.0000 C.ar    1  UNL1       -0.0504
     31 C           8.6594    3.9154    0.0000 C.ar    1  UNL1       -0.0194
     32 C           9.5312    2.4188    0.0000 C.ar    1  UNL1       -0.0194
     33 C           9.5273    3.4187    0.0000 C.ar    1  UNL1        0.1201
     34 C          11.2593    3.4254    0.0000 C.3     1  UNL1        0.0788
     35 H           2.8660   -1.4221    0.0000 H       1  UNL1        0.0649
     36 H           3.4030   -2.7321    0.0000 H       1  UNL1        0.0647
     37 H           5.0051   -0.1871    0.0000 H       1  UNL1        0.0676
     38 H           4.8059   -2.9221    0.0000 H       1  UNL1        0.0647
     39 H           5.6720   -1.8021    0.0000 H       1  UNL1        0.0646
     40 H           6.6116   -2.7197    0.0000 H       1  UNL1        0.0584
     41 H           6.2131   -2.0295    0.0000 H       1  UNL1        0.0584
     42 H           2.0000   -0.9221    0.0000 H       1  UNL1        0.2100
     43 H           2.5369   -3.2321    0.0000 H       1  UNL1        0.2100
     44 H           3.7320   -3.9221    0.0000 H       1  UNL1        0.2100
     45 H           6.5380   -3.9221    0.0000 H       1  UNL1        0.2095
     46 H           7.4708    0.5550    0.0000 H       1  UNL1        0.1037
     47 H           2.0000    0.6979    0.0000 H       1  UNL1        0.2923
     48 H           3.7320    3.6979    0.0000 H       1  UNL1        0.2923
     49 H           3.1569    3.3879    0.0000 H       1  UNL1        0.0660
     50 H           2.5369    4.0079    0.0000 H       1  UNL1        0.0660
     51 H           1.9169    3.3879    0.0000 H       1  UNL1        0.0660
     52 H           7.2571    3.7200    0.0000 H       1  UNL1        0.0625
     53 H           8.6694    1.2954    0.0000 H       1  UNL1        0.0625
     54 H           8.6570    4.5354    0.0000 H       1  UNL1        0.0654
     55 H          10.0693    2.1108    0.0000 H       1  UNL1        0.0654
     56 H          10.9514    2.8873    0.0000 H       1  UNL1        0.0660
     57 H          11.7975    3.1175    0.0000 H       1  UNL1        0.0660
     58 H          11.5673    3.9636    0.0000 H       1  UNL1        0.0660
@<TRIPOS>BOND
     1     1    14    1
     2     1    16    1
     3     2    12    1
     4     2    42    1
     5    13     3    1
     6     3    43    1
     7    15     4    1
     8     4    44    1
     9     5    18    1
    10     5    45    1
    11     6    19   ar
    12     6    26   ar
    13     7    20    1
    14     7    47    1
    15     8    22    1
    16     8    28    1
    17     9    23    1
    18     9    48    1
    19    10    24    2
    20    11    33    1
    21    11    34    1
    22    12    13    1
    23    12    14    1
    24    12    35    1
    25    13    15    1
    26    13    36    1
    27    14    17    1
    28    14    37    1
    29    15    16    1
    30    15    38    1
    31    16    18    1
    32    16    39    1
    33    17    19   ar
    34    17    20   ar
    35    18    40    1
    36    18    41    1
    37    19    21   ar
    38    20    22   ar
    39    21    23   ar
    40    21    24   ar
    41    22    23   ar
    42    24    25   ar
    43    25    26   ar
    44    25    27    1
    45    26    46    1
    46    27    29   ar
    47    27    30   ar
    48    28    49    1
    49    28    50    1
    50    28    51    1
    51    29    31   ar
    52    29    52    1
    53    30    32   ar
    54    30    53    1
    55    31    33   ar
    56    31    54    1
    57    32    33   ar
    58    32    55    1
    59    34    56    1
    60    34    57    1
    61    34    58    1
