@<TRIPOS>MOLECULE
IMPHY004539
 39 44 0 0 0
SMALL
GASTEIGER

@<TRIPOS>ATOM
      1 O           4.5732    3.5673    0.0000 O.3     1  UNL1       -0.4518
      2 O           3.1278    4.4167    0.0000 O.3     1  UNL1       -0.4526
      3 O           5.5740   -3.5278    0.0000 O.3     1  UNL1       -0.4526
      4 O           4.0684   -4.4125    0.0000 O.3     1  UNL1       -0.4526
      5 N           4.6501    0.3368    0.0000 N.ar    1  UNL1       -0.1986
      6 C           3.7841   -0.1632    0.0000 C.ar    1  UNL1        0.2231
      7 C           2.9180    0.3368    0.0000 C.ar    1  UNL1        0.0548
      8 C           2.9180    1.3368    0.0000 C.ar    1  UNL1        0.0050
      9 C           3.8001   -1.2047    0.0000 C.ar    1  UNL1        0.0576
     10 C           3.7841    1.8368    0.0000 C.ar    1  UNL1        0.0917
     11 C           2.9021   -1.7324    0.0000 C.ar    1  UNL1       -0.0079
     12 C           4.6501    1.3368    0.0000 C.ar    1  UNL1        0.1829
     13 C           3.8001    2.8783    0.0000 C.ar    1  UNL1        0.1796
     14 C           2.0080   -0.1700    0.0000 C.ar    1  UNL1       -0.0471
     15 C           2.0000   -1.2116    0.0000 C.ar    1  UNL1       -0.0529
     16 C           4.7520   -1.7253    0.0000 C.ar    1  UNL1       -0.0021
     17 C           2.0080    1.8437    0.0000 C.ar    1  UNL1       -0.0494
     18 C           2.9021    3.4061    0.0000 C.ar    1  UNL1        0.1671
     19 C           2.8937   -2.8174    0.0000 C.ar    1  UNL1       -0.0082
     20 C           4.7688   -2.8102    0.0000 C.ar    1  UNL1        0.1670
     21 C           3.8334   -3.3599    0.0000 C.ar    1  UNL1        0.1668
     22 C           5.5161   -0.1632    0.0000 C.3     1  UNL1        0.1410
     23 C           2.0000    2.8853    0.0000 C.ar    1  UNL1       -0.0155
     24 C           4.1585    4.5161    0.0000 C.3     1  UNL1        0.2333
     25 C           5.1420   -4.5161    0.0000 C.3     1  UNL1        0.2332
     26 H           5.1870    1.6468    0.0000 H       1  UNL1        0.1384
     27 H           1.4747    0.1462    0.0000 H       1  UNL1        0.0626
     28 H           1.4619   -1.5195    0.0000 H       1  UNL1        0.0624
     29 H           5.2829   -1.4050    0.0000 H       1  UNL1        0.0663
     30 H           1.4747    1.5275    0.0000 H       1  UNL1        0.0625
     31 H           2.3556   -3.1253    0.0000 H       1  UNL1        0.0661
     32 H           5.2061   -0.7001    0.0000 H       1  UNL1        0.0993
     33 H           6.0530   -0.4732    0.0000 H       1  UNL1        0.0993
     34 H           5.8261    0.3738    0.0000 H       1  UNL1        0.0993
     35 H           1.4619    3.1932    0.0000 H       1  UNL1        0.0655
     36 H           4.7495    4.7033    0.0000 H       1  UNL1        0.1166
     37 H           4.0344    5.1235    0.0000 H       1  UNL1        0.1166
     38 H           5.0180   -5.1235    0.0000 H       1  UNL1        0.1166
     39 H           5.7331   -4.7033    0.0000 H       1  UNL1        0.1166
@<TRIPOS>UNITY_ATOM_ATTR
5 1
charge 1
@<TRIPOS>BOND
     1     1    13    1
     2     1    24    1
     3     2    18    1
     4     2    24    1
     5     3    20    1
     6     3    25    1
     7     4    21    1
     8     4    25    1
     9     5     6   ar
    10     5    12   ar
    11     5    22    1
    12     6     7   ar
    13     6     9   ar
    14     7     8   ar
    15     7    14   ar
    16     8    10   ar
    17     8    17   ar
    18     9    11   ar
    19     9    16   ar
    20    10    12   ar
    21    10    13   ar
    22    11    15   ar
    23    11    19   ar
    24    12    26    1
    25    13    18   ar
    26    14    15   ar
    27    14    27    1
    28    15    28    1
    29    16    20   ar
    30    16    29    1
    31    17    23   ar
    32    17    30    1
    33    18    23   ar
    34    19    21   ar
    35    19    31    1
    36    20    21   ar
    37    22    32    1
    38    22    33    1
    39    22    34    1
    40    23    35    1
    41    24    36    1
    42    24    37    1
    43    25    38    1
    44    25    39    1
