@<TRIPOS>MOLECULE
IMPHY009845
 24 23 0 0 0
SMALL
GASTEIGER

@<TRIPOS>ATOM
      1 O           7.1962    0.2500    0.0000 O.3     1  UNL1       -0.3830
      2 C           4.5981   -0.2500    0.0000 C.3     1  UNL1       -0.0510
      3 C           3.7320    0.2500    0.0000 C.3     1  UNL1       -0.0532
      4 C           5.4641    0.2500    0.0000 C.3     1  UNL1       -0.0295
      5 C           2.8660   -0.2500    0.0000 C.3     1  UNL1       -0.0559
      6 C           6.3301   -0.2500    0.0000 C.3     1  UNL1        0.0473
      7 C           2.0000    0.2500    0.0000 C.3     1  UNL1       -0.0653
      8 C           8.0622   -0.2500    0.0000 C.3     1  UNL1        0.0364
      9 H           4.1996   -0.7249    0.0000 H       1  UNL1        0.0266
     10 H           4.9966   -0.7249    0.0000 H       1  UNL1        0.0266
     11 H           4.1306    0.7249    0.0000 H       1  UNL1        0.0265
     12 H           3.3335    0.7249    0.0000 H       1  UNL1        0.0265
     13 H           5.8626    0.7249    0.0000 H       1  UNL1        0.0287
     14 H           5.0656    0.7249    0.0000 H       1  UNL1        0.0287
     15 H           2.4675   -0.7249    0.0000 H       1  UNL1        0.0263
     16 H           3.2646   -0.7249    0.0000 H       1  UNL1        0.0263
     17 H           5.9316   -0.7249    0.0000 H       1  UNL1        0.0560
     18 H           6.7287   -0.7249    0.0000 H       1  UNL1        0.0560
     19 H           2.3100    0.7869    0.0000 H       1  UNL1        0.0230
     20 H           1.4631    0.5600    0.0000 H       1  UNL1        0.0230
     21 H           1.6900   -0.2869    0.0000 H       1  UNL1        0.0230
     22 H           7.7522   -0.7869    0.0000 H       1  UNL1        0.0523
     23 H           8.5991   -0.5600    0.0000 H       1  UNL1        0.0523
     24 H           8.3722    0.2869    0.0000 H       1  UNL1        0.0523
@<TRIPOS>BOND
     1     1     6    1
     2     1     8    1
     3     2     3    1
     4     2     4    1
     5     2     9    1
     6     2    10    1
     7     3     5    1
     8     3    11    1
     9     3    12    1
    10     4     6    1
    11     4    13    1
    12     4    14    1
    13     5     7    1
    14     5    15    1
    15     5    16    1
    16     6    17    1
    17     6    18    1
    18     7    19    1
    19     7    20    1
    20     7    21    1
    21     8    22    1
    22     8    23    1
    23     8    24    1
