@<TRIPOS>MOLECULE
IMPHY002420
 47 49 0 0 0
SMALL
GASTEIGER

@<TRIPOS>ATOM
      1 O           8.0901   -1.8017    0.0000 O.2     1  UNL1       -0.4618
      2 O           6.3301    1.2329    0.0000 O.3     1  UNL1       -0.5055
      3 O           4.5981   -1.7671    0.0000 O.3     1  UNL1       -0.5062
      4 O           8.0785    1.2675    0.0000 O.2     1  UNL1       -0.2863
      5 O          12.4602   -0.2329    0.0000 O.3     1  UNL1       -0.4914
      6 O          12.4525    1.7671    0.0000 O.3     1  UNL1       -0.5033
      7 C           7.1962   -0.2671    0.0000 C.ar    1  UNL1        0.1063
      8 C           5.4641   -0.2671    0.0000 C.ar    1  UNL1        0.0400
      9 C           6.3301    0.2329    0.0000 C.ar    1  UNL1        0.1381
     10 C           7.1962   -1.2671    0.0000 C.ar    1  UNL1        0.1454
     11 C           4.5981    0.2329    0.0000 C.3     1  UNL1       -0.0023
     12 C           8.9962   -0.2463    0.0000 C.ar    1  UNL1        0.0645
     13 C           8.0901    0.2676    0.0000 C.ar    1  UNL1        0.2037
     14 C           5.4641   -1.2671    0.0000 C.ar    1  UNL1        0.1273
     15 C           6.3301   -1.7671    0.0000 C.ar    1  UNL1        0.0234
     16 C           9.8602    0.2571    0.0000 C.ar    1  UNL1       -0.0076
     17 C           8.9962   -1.2879    0.0000 C.ar    1  UNL1        0.1038
     18 C           3.7320   -0.2671    0.0000 C.2     1  UNL1       -0.0807
     19 C          10.7282   -0.2396    0.0000 C.ar    1  UNL1       -0.0084
     20 C           2.8660    0.2329    0.0000 C.2     1  UNL1       -0.0793
     21 C           9.8564    1.2571    0.0000 C.ar    1  UNL1       -0.0501
     22 C          11.5923    0.2638    0.0000 C.ar    1  UNL1        0.1618
     23 C          10.7205    1.7604    0.0000 C.ar    1  UNL1       -0.0159
     24 C          11.5884    1.2637    0.0000 C.ar    1  UNL1        0.1585
     25 C           2.0000   -0.2671    0.0000 C.3     1  UNL1       -0.0440
     26 C           2.8660    1.2329    0.0000 C.3     1  UNL1       -0.0440
     27 C          12.4641   -1.2329    0.0000 C.3     1  UNL1        0.0790
     28 H           4.9966    0.7079    0.0000 H       1  UNL1        0.0358
     29 H           4.1996    0.7079    0.0000 H       1  UNL1        0.0358
     30 H           6.3301   -2.3871    0.0000 H       1  UNL1        0.0691
     31 H           9.5319   -1.6000    0.0000 H       1  UNL1        0.1037
     32 H           3.7320   -0.8871    0.0000 H       1  UNL1        0.0575
     33 H          10.7306   -0.8596    0.0000 H       1  UNL1        0.0661
     34 H           9.3183    1.5650    0.0000 H       1  UNL1        0.0625
     35 H           5.7932    1.5429    0.0000 H       1  UNL1        0.2922
     36 H          10.7181    2.3804    0.0000 H       1  UNL1        0.0655
     37 H           4.5981   -2.3871    0.0000 H       1  UNL1        0.2921
     38 H           3.4860    1.2329    0.0000 H       1  UNL1        0.0274
     39 H           2.8660    1.8529    0.0000 H       1  UNL1        0.0274
     40 H           1.6900    0.2699    0.0000 H       1  UNL1        0.0274
     41 H           1.4631   -0.5771    0.0000 H       1  UNL1        0.0274
     42 H           2.3100   -0.8040    0.0000 H       1  UNL1        0.0274
     43 H           2.2460    1.2329    0.0000 H       1  UNL1        0.0274
     44 H          12.4501    2.3871    0.0000 H       1  UNL1        0.2923
     45 H          11.8441   -1.2353    0.0000 H       1  UNL1        0.0660
     46 H          12.4665   -1.8529    0.0000 H       1  UNL1        0.0660
     47 H          13.0841   -1.2305    0.0000 H       1  UNL1        0.0660
@<TRIPOS>BOND
     1     1    10   ar
     2     1    17   ar
     3     2     9    1
     4     2    35    1
     5     3    14    1
     6     3    37    1
     7     4    13    2
     8     5    22    1
     9     5    27    1
    10     6    24    1
    11     6    44    1
    12     7     9   ar
    13     7    10   ar
    14     7    13   ar
    15     8     9   ar
    16     8    11    1
    17     8    14   ar
    18    10    15   ar
    19    11    18    1
    20    11    28    1
    21    11    29    1
    22    12    13   ar
    23    12    16    1
    24    12    17   ar
    25    14    15   ar
    26    15    30    1
    27    16    19   ar
    28    16    21   ar
    29    17    31    1
    30    18    20    2
    31    18    32    1
    32    19    22   ar
    33    19    33    1
    34    20    25    1
    35    20    26    1
    36    21    23   ar
    37    21    34    1
    38    22    24   ar
    39    23    24   ar
    40    23    36    1
    41    25    40    1
    42    25    41    1
    43    25    42    1
    44    26    38    1
    45    26    39    1
    46    26    43    1
    47    27    45    1
    48    27    46    1
    49    27    47    1
