@<TRIPOS>MOLECULE
IMPHY004092
 57 59 0 0 0
SMALL
GASTEIGER

@<TRIPOS>ATOM
      1 O           2.5381   -2.6623    0.0000 O.3     1  UNL1       -0.3912
      2 O           9.3556    1.2705    0.0000 O.3     1  UNL1       -0.3887
      3 O           8.3623    3.0064    0.0000 O.3     1  UNL1       -0.3924
      4 C           5.2022   -1.1382    0.0000 C.3     1  UNL1       -0.0221
      5 C           5.2022   -2.1382    0.0000 C.3     1  UNL1       -0.0273
      6 C           6.0682   -0.6381    0.0000 C.3     1  UNL1       -0.0142
      7 C           4.3083   -2.6728    0.0000 C.3     1  UNL1       -0.0056
      8 C           4.3083   -0.6035    0.0000 C.3     1  UNL1       -0.0445
      9 C           6.0682   -2.6382    0.0000 C.3     1  UNL1       -0.0454
     10 C           3.4022   -2.1590    0.0000 C.3     1  UNL1        0.0606
     11 C           6.9343   -1.1382    0.0000 C.2     1  UNL1       -0.0692
     12 C           3.4022   -1.1173    0.0000 C.3     1  UNL1       -0.0258
     13 C           6.0522    0.4034    0.0000 C.3     1  UNL1       -0.0451
     14 C           6.9343   -2.1382    0.0000 C.3     1  UNL1       -0.0312
     15 C           5.2022   -0.1381    0.0000 C.3     1  UNL1       -0.0587
     16 C           7.8523    0.4103    0.0000 C.3     1  UNL1        0.0143
     17 C           6.9502    0.9311    0.0000 C.3     1  UNL1       -0.0412
     18 C           3.8183   -3.5446    0.0000 C.3     1  UNL1       -0.0572
     19 C           4.8183   -3.5330    0.0000 C.3     1  UNL1       -0.0572
     20 C           7.8443   -0.6313    0.0000 C.2     1  UNL1       -0.0760
     21 C           8.3556    1.2744    0.0000 C.3     1  UNL1        0.0870
     22 C           8.8523    0.4064    0.0000 C.3     1  UNL1       -0.0536
     23 C           7.8590    2.1423    0.0000 C.3     1  UNL1        0.0709
     24 H           5.2088   -2.9881    0.0000 H       1  UNL1        0.0312
     25 H           6.8011   -0.2075    0.0000 H       1  UNL1        0.0351
     26 H           4.7129   -0.1337    0.0000 H       1  UNL1        0.0272
     27 H           3.9147   -0.1245    0.0000 H       1  UNL1        0.0272
     28 H           5.6697   -3.1131    0.0000 H       1  UNL1        0.0271
     29 H           6.4668   -3.1131    0.0000 H       1  UNL1        0.0271
     30 H           3.4058   -2.7790    0.0000 H       1  UNL1        0.0599
     31 H           3.1932   -0.5336    0.0000 H       1  UNL1        0.0290
     32 H           2.7914   -1.2234    0.0000 H       1  UNL1        0.0290
     33 H           5.8342    0.9838    0.0000 H       1  UNL1        0.0271
     34 H           5.4431    0.2879    0.0000 H       1  UNL1        0.0271
     35 H           7.1463   -2.7208    0.0000 H       1  UNL1        0.0310
     36 H           7.5449   -2.0305    0.0000 H       1  UNL1        0.0310
     37 H           5.8222   -0.1381    0.0000 H       1  UNL1        0.0235
     38 H           5.2022    0.4819    0.0000 H       1  UNL1        0.0235
     39 H           4.5822   -0.1381    0.0000 H       1  UNL1        0.0235
     40 H           7.3475    1.4071    0.0000 H       1  UNL1        0.0274
     41 H           6.5493    1.4040    0.0000 H       1  UNL1        0.0274
     42 H           3.2778   -3.2408    0.0000 H       1  UNL1        0.0236
     43 H           3.5146   -4.0850    0.0000 H       1  UNL1        0.0236
     44 H           4.3588   -3.8483    0.0000 H       1  UNL1        0.0236
     45 H           4.2850   -3.8492    0.0000 H       1  UNL1        0.0236
     46 H           5.1344   -4.0663    0.0000 H       1  UNL1        0.0236
     47 H           5.3516   -3.2168    0.0000 H       1  UNL1        0.0236
     48 H           8.3776   -0.9475    0.0000 H       1  UNL1        0.0578
     49 H           8.6677    1.8101    0.0000 H       1  UNL1        0.0625
     50 H           8.8499   -0.2136    0.0000 H       1  UNL1        0.0239
     51 H           9.4723    0.4041    0.0000 H       1  UNL1        0.0239
     52 H           8.8547    1.0264    0.0000 H       1  UNL1        0.0239
     53 H           2.0000   -2.3544    0.0000 H       1  UNL1        0.2098
     54 H           7.3856    2.5427    0.0000 H       1  UNL1        0.0583
     55 H           7.3825    1.7456    0.0000 H       1  UNL1        0.0583
     56 H           9.6677    1.8063    0.0000 H       1  UNL1        0.2099
     57 H           8.0544    3.5446    0.0000 H       1  UNL1        0.2095
@<TRIPOS>BOND
     1    10     1    1
     2     1    53    1
     3    21     2    1
     4     2    56    1
     5     3    23    1
     6     3    57    1
     7     4     5    1
     8     4     6    1
     9     4     8    1
    10     4    15    1
    11     5     7    1
    12     5     9    1
    13     5    24    1
    14     6    11    1
    15     6    13    1
    16     6    25    1
    17     7    10    1
    18     7    18    1
    19     7    19    1
    20     8    12    1
    21     8    26    1
    22     8    27    1
    23     9    14    1
    24     9    28    1
    25     9    29    1
    26    10    12    1
    27    10    30    1
    28    11    14    1
    29    11    20    2
    30    12    31    1
    31    12    32    1
    32    13    17    1
    33    13    33    1
    34    13    34    1
    35    14    35    1
    36    14    36    1
    37    15    37    1
    38    15    38    1
    39    15    39    1
    40    16    17    1
    41    16    20    1
    42    16    21    1
    43    16    22    1
    44    17    40    1
    45    17    41    1
    46    18    42    1
    47    18    43    1
    48    18    44    1
    49    19    45    1
    50    19    46    1
    51    19    47    1
    52    20    48    1
    53    21    23    1
    54    21    49    1
    55    22    50    1
    56    22    51    1
    57    22    52    1
    58    23    54    1
    59    23    55    1
