@<TRIPOS>MOLECULE
IMPHY013027
 56 61 0 0 0
SMALL
GASTEIGER

@<TRIPOS>ATOM
      1 O           7.3981    0.5000    0.0000 O.3     1  UNL1       -0.4756
      2 O           4.6660   -0.5000    0.0000 O.3     1  UNL1       -0.4756
      3 O           7.8982   -2.3660    0.0000 O.2     1  UNL1       -0.2918
      4 O           4.1660    2.3660    0.0000 O.2     1  UNL1       -0.2918
      5 C           6.5321    0.0000    0.0000 C.3     1  UNL1        0.1862
      6 C           5.5321    0.0000    0.0000 C.3     1  UNL1        0.1862
      7 C           6.5321   -1.0000    0.0000 C.3     1  UNL1        0.0589
      8 C           5.5321    1.0000    0.0000 C.3     1  UNL1        0.0589
      9 C           6.7057    0.9848    0.0000 C.ar    1  UNL1        0.0003
     10 C           5.3585   -0.9848    0.0000 C.ar    1  UNL1        0.0003
     11 C           7.3981   -1.5000    0.0000 C.2     1  UNL1        0.1709
     12 C           4.6660    1.5000    0.0000 C.2     1  UNL1        0.1709
     13 C           8.2641    0.0000    0.0000 C.ar    1  UNL1        0.1325
     14 C           3.8000    0.0000    0.0000 C.ar    1  UNL1        0.1325
     15 C           8.2641   -1.0000    0.0000 C.ar    1  UNL1        0.0592
     16 C           3.8000    1.0000    0.0000 C.ar    1  UNL1        0.0592
     17 C           5.9397    1.6276    0.0000 C.ar    1  UNL1       -0.0546
     18 C           4.4188   -1.3268    0.0000 C.ar    1  UNL1       -0.0546
     19 C           7.6454    1.3268    0.0000 C.ar    1  UNL1       -0.0546
     20 C           6.1244   -1.6276    0.0000 C.ar    1  UNL1       -0.0546
     21 C           9.1580    0.5347    0.0000 C.ar    1  UNL1       -0.0192
     22 C           2.9061   -0.5347    0.0000 C.ar    1  UNL1       -0.0192
     23 C           9.1580   -1.5346    0.0000 C.ar    1  UNL1       -0.0477
     24 C           2.9061    1.5347    0.0000 C.ar    1  UNL1       -0.0477
     25 C           6.1133    2.6124    0.0000 C.ar    1  UNL1       -0.0614
     26 C           4.2451   -2.3117    0.0000 C.ar    1  UNL1       -0.0614
     27 C           7.8190    2.3116    0.0000 C.ar    1  UNL1       -0.0614
     28 C           5.9508   -2.6124    0.0000 C.ar    1  UNL1       -0.0614
     29 C           7.0530    2.9544    0.0000 C.ar    1  UNL1       -0.0617
     30 C           5.0112   -2.9544    0.0000 C.ar    1  UNL1       -0.0617
     31 C          10.0641    0.0208    0.0000 C.ar    1  UNL1       -0.0583
     32 C           2.0000   -0.0208    0.0000 C.ar    1  UNL1       -0.0583
     33 C          10.0641   -1.0208    0.0000 C.ar    1  UNL1       -0.0609
     34 C           2.0000    1.0208    0.0000 C.ar    1  UNL1       -0.0609
     35 H           5.9215   -0.8923    0.0000 H       1  UNL1        0.0389
     36 H           6.3200   -1.5826    0.0000 H       1  UNL1        0.0389
     37 H           6.1426    0.8923    0.0000 H       1  UNL1        0.0389
     38 H           5.7441    1.5826    0.0000 H       1  UNL1        0.0389
     39 H           5.3570    1.4156    0.0000 H       1  UNL1        0.0622
     40 H           3.9438   -0.9283    0.0000 H       1  UNL1        0.0622
     41 H           8.1204    0.9283    0.0000 H       1  UNL1        0.0622
     42 H           6.7070   -1.4156    0.0000 H       1  UNL1        0.0622
     43 H           9.1509    1.1546    0.0000 H       1  UNL1        0.0654
     44 H           2.9132   -1.1546    0.0000 H       1  UNL1        0.0654
     45 H           9.1509   -2.1546    0.0000 H       1  UNL1        0.0626
     46 H           2.9132    2.1546    0.0000 H       1  UNL1        0.0626
     47 H           5.6384    3.0109    0.0000 H       1  UNL1        0.0618
     48 H           3.6625   -2.5237    0.0000 H       1  UNL1        0.0618
     49 H           8.4017    2.5237    0.0000 H       1  UNL1        0.0618
     50 H           6.4258   -3.0109    0.0000 H       1  UNL1        0.0618
     51 H           7.1607    3.5650    0.0000 H       1  UNL1        0.0618
     52 H           4.9036   -3.5650    0.0000 H       1  UNL1        0.0618
     53 H          10.5999    0.3329    0.0000 H       1  UNL1        0.0619
     54 H           1.4643   -0.3329    0.0000 H       1  UNL1        0.0619
     55 H          10.5999   -1.3329    0.0000 H       1  UNL1        0.0618
     56 H           1.4643    1.3329    0.0000 H       1  UNL1        0.0618
@<TRIPOS>BOND
     1     1     5    1
     2     1    13    1
     3     2     6    1
     4     2    14    1
     5     3    11    2
     6     4    12    2
     7     5     6    1
     8     5     7    1
     9     5     9    1
    10     6     8    1
    11     6    10    1
    12     7    11    1
    13     7    35    1
    14     7    36    1
    15     8    12    1
    16     8    37    1
    17     8    38    1
    18     9    17   ar
    19     9    19   ar
    20    10    18   ar
    21    10    20   ar
    22    11    15    1
    23    12    16    1
    24    13    15   ar
    25    13    21   ar
    26    14    16   ar
    27    14    22   ar
    28    15    23   ar
    29    16    24   ar
    30    17    25   ar
    31    17    39    1
    32    18    26   ar
    33    18    40    1
    34    19    27   ar
    35    19    41    1
    36    20    28   ar
    37    20    42    1
    38    21    31   ar
    39    21    43    1
    40    22    32   ar
    41    22    44    1
    42    23    33   ar
    43    23    45    1
    44    24    34   ar
    45    24    46    1
    46    25    29   ar
    47    25    47    1
    48    26    30   ar
    49    26    48    1
    50    27    29   ar
    51    27    49    1
    52    28    30   ar
    53    28    50    1
    54    29    51    1
    55    30    52    1
    56    31    33   ar
    57    31    53    1
    58    32    34   ar
    59    32    54    1
    60    33    55    1
    61    34    56    1
