@<TRIPOS>MOLECULE
IMPHY007609
 54 57 0 0 0
SMALL
GASTEIGER

@<TRIPOS>ATOM
      1 C           5.6538   -0.1308    0.0000 C.3     1  UNL1       -0.0254
      2 C           4.7853    0.3648    0.0000 C.3     1  UNL1       -0.0297
      3 C           3.8778   -0.1465    0.0000 C.3     1  UNL1       -0.0254
      4 C           3.8750   -1.1882    0.0000 C.3     1  UNL1       -0.0302
      5 C           5.6293    1.0505    0.0000 C.3     1  UNL1       -0.0440
      6 C           6.3054    2.0196    0.0000 C.3     1  UNL1       -0.0379
      7 C           6.5828    0.2391    0.0000 C.3     1  UNL1       -0.0442
      8 C           5.6751   -1.1722    0.0000 C.3     1  UNL1       -0.0468
      9 C           6.8728    1.1962    0.0000 C.3     1  UNL1       -0.0405
     10 C           4.6313    1.3529    0.0000 C.3     1  UNL1       -0.0489
     11 C           4.7797   -1.7045    0.0000 C.3     1  UNL1       -0.0487
     12 C           2.9423   -1.7425    0.0000 C.3     1  UNL1       -0.0315
     13 C           5.3078    2.0894    0.0000 C.3     1  UNL1       -0.0497
     14 C           2.9482    0.4129    0.0000 C.3     1  UNL1       -0.0471
     15 C           3.5384    0.7941    0.0000 C.3     1  UNL1       -0.0590
     16 C           2.0000   -1.2047    0.0000 C.3     1  UNL1       -0.0476
     17 C           2.0029   -0.1197    0.0000 C.3     1  UNL1       -0.0521
     18 C           7.8609    1.3502    0.0000 C.3     1  UNL1       -0.0621
     19 C           2.4500   -2.6130    0.0000 C.3     1  UNL1       -0.0595
     20 C           3.4500   -2.6041    0.0000 C.3     1  UNL1       -0.0595
     21 H           4.0471    0.7862    0.0000 H       1  UNL1        0.0311
     22 H           3.8825   -2.0381    0.0000 H       1  UNL1        0.0311
     23 H           5.2551    1.5448    0.0000 H       1  UNL1        0.0273
     24 H           5.0436    0.8471    0.0000 H       1  UNL1        0.0273
     25 H           6.5519    2.8331    0.0000 H       1  UNL1        0.0304
     26 H           6.6783   -0.3735    0.0000 H       1  UNL1        0.0273
     27 H           7.2013    0.1959    0.0000 H       1  UNL1        0.0273
     28 H           5.8960   -1.7516    0.0000 H       1  UNL1        0.0271
     29 H           6.2836   -1.0537    0.0000 H       1  UNL1        0.0271
     30 H           7.1179    1.7657    0.0000 H       1  UNL1        0.0301
     31 H           4.2795    1.8634    0.0000 H       1  UNL1        0.0268
     32 H           4.0553    1.1235    0.0000 H       1  UNL1        0.0268
     33 H           4.3847   -2.1824    0.0000 H       1  UNL1        0.0268
     34 H           5.1830   -2.1754    0.0000 H       1  UNL1        0.0268
     35 H           5.4876    2.6827    0.0000 H       1  UNL1        0.0268
     36 H           4.7694    2.3967    0.0000 H       1  UNL1        0.0268
     37 H           3.3541    0.8816    0.0000 H       1  UNL1        0.0271
     38 H           2.5559    0.8930    0.0000 H       1  UNL1        0.0271
     39 H           4.1216    1.0046    0.0000 H       1  UNL1        0.0235
     40 H           3.3279    1.3773    0.0000 H       1  UNL1        0.0235
     41 H           2.9552    0.5836    0.0000 H       1  UNL1        0.0235
     42 H           1.3894   -1.0970    0.0000 H       1  UNL1        0.0271
     43 H           1.7894   -1.7879    0.0000 H       1  UNL1        0.0271
     44 H           1.7955    0.4645    0.0000 H       1  UNL1        0.0266
     45 H           1.3918   -0.2242    0.0000 H       1  UNL1        0.0266
     46 H           7.9564    0.7375    0.0000 H       1  UNL1        0.0233
     47 H           8.4735    1.4456    0.0000 H       1  UNL1        0.0233
     48 H           7.7654    1.9628    0.0000 H       1  UNL1        0.0233
     49 H           1.9104   -2.3077    0.0000 H       1  UNL1        0.0235
     50 H           2.1448   -3.1526    0.0000 H       1  UNL1        0.0235
     51 H           2.9897   -2.9182    0.0000 H       1  UNL1        0.0235
     52 H           2.9158   -2.9188    0.0000 H       1  UNL1        0.0235
     53 H           3.7647   -3.1383    0.0000 H       1  UNL1        0.0235
     54 H           3.9841   -2.2894    0.0000 H       1  UNL1        0.0235
@<TRIPOS>BOND
     1     1     2    1
     2     1     5    1
     3     1     7    1
     4     1     8    1
     5     2     3    1
     6     2    10    1
     7     2    21    1
     8     3     4    1
     9     3    14    1
    10     3    15    1
    11     4    11    1
    12     4    12    1
    13     4    22    1
    14     5     6    1
    15     5    23    1
    16     5    24    1
    17     6     9    1
    18     6    13    1
    19     6    25    1
    20     7     9    1
    21     7    26    1
    22     7    27    1
    23     8    11    1
    24     8    28    1
    25     8    29    1
    26     9    18    1
    27     9    30    1
    28    10    13    1
    29    10    31    1
    30    10    32    1
    31    11    33    1
    32    11    34    1
    33    12    16    1
    34    12    19    1
    35    12    20    1
    36    13    35    1
    37    13    36    1
    38    14    17    1
    39    14    37    1
    40    14    38    1
    41    15    39    1
    42    15    40    1
    43    15    41    1
    44    16    17    1
    45    16    42    1
    46    16    43    1
    47    17    44    1
    48    17    45    1
    49    18    46    1
    50    18    47    1
    51    18    48    1
    52    19    49    1
    53    19    50    1
    54    19    51    1
    55    20    52    1
    56    20    53    1
    57    20    54    1
