@<TRIPOS>MOLECULE
IMPHY017881
 36 38 0 0 0
SMALL
GASTEIGER

@<TRIPOS>ATOM
      1 C           4.5037   -0.4003    0.0000 C.3     1  UNL1       -0.0284
      2 C           5.3302   -0.9641    0.0000 C.3     1  UNL1       -0.0281
      3 C           5.4047    0.0336    0.0000 C.3     1  UNL1       -0.0286
      4 C           3.6027    0.0336    0.0000 C.3     1  UNL1       -0.0286
      5 C           3.3802    1.0085    0.0000 C.3     1  UNL1       -0.0195
      6 C           2.7480   -0.4741    0.0000 C.3     1  UNL1       -0.0402
      7 C           5.6272    1.0085    0.0000 C.3     1  UNL1       -0.0311
      8 C           6.3274   -1.0388    0.0000 C.3     1  UNL1       -0.0593
      9 C           4.7668   -1.7903    0.0000 C.3     1  UNL1       -0.0593
     10 C           2.3899    1.0950    0.0000 C.3     1  UNL1       -0.0462
     11 C           2.0000    0.1806    0.0000 C.3     1  UNL1       -0.0496
     12 C           4.0037    1.7903    0.0000 C.2     1  UNL1       -0.0845
     13 C           5.0037    1.7903    0.0000 C.2     1  UNL1       -0.0874
     14 C           2.6567   -1.4699    0.0000 C.3     1  UNL1       -0.0621
     15 H           4.1936   -0.9372    0.0000 H       1  UNL1        0.0312
     16 H           6.0178   -0.0588    0.0000 H       1  UNL1        0.0312
     17 H           3.6298   -0.5858    0.0000 H       1  UNL1        0.0312
     18 H           3.1358    1.5783    0.0000 H       1  UNL1        0.0346
     19 H           3.2723   -0.8051    0.0000 H       1  UNL1        0.0301
     20 H           6.1858    0.7395    0.0000 H       1  UNL1        0.0310
     21 H           6.0138    1.4932    0.0000 H       1  UNL1        0.0310
     22 H           6.2810   -1.6571    0.0000 H       1  UNL1        0.0235
     23 H           6.9456   -1.0852    0.0000 H       1  UNL1        0.0235
     24 H           6.3737   -0.4206    0.0000 H       1  UNL1        0.0235
     25 H           4.2546   -1.4411    0.0000 H       1  UNL1        0.0235
     26 H           4.4176   -2.3026    0.0000 H       1  UNL1        0.0235
     27 H           5.2791   -2.1396    0.0000 H       1  UNL1        0.0235
     28 H           2.5085    1.7036    0.0000 H       1  UNL1        0.0271
     29 H           1.7972    1.2769    0.0000 H       1  UNL1        0.0271
     30 H           1.4584    0.4824    0.0000 H       1  UNL1        0.0268
     31 H           1.6430   -0.3263    0.0000 H       1  UNL1        0.0268
     32 H           3.7347    2.3489    0.0000 H       1  UNL1        0.0572
     33 H           5.2727    2.3489    0.0000 H       1  UNL1        0.0569
     34 H           2.0393   -1.4132    0.0000 H       1  UNL1        0.0233
     35 H           2.6000   -2.0873    0.0000 H       1  UNL1        0.0233
     36 H           3.2741   -1.5265    0.0000 H       1  UNL1        0.0233
@<TRIPOS>BOND
     1     1     2    1
     2     1     3    1
     3     1     4    1
     4     1    15    1
     5     2     3    1
     6     2     8    1
     7     2     9    1
     8     3     7    1
     9     3    16    1
    10     4     5    1
    11     4     6    1
    12     4    17    1
    13     5    10    1
    14     5    12    1
    15     5    18    1
    16     6    11    1
    17     6    14    1
    18     6    19    1
    19     7    13    1
    20     7    20    1
    21     7    21    1
    22     8    22    1
    23     8    23    1
    24     8    24    1
    25     9    25    1
    26     9    26    1
    27     9    27    1
    28    10    11    1
    29    10    28    1
    30    10    29    1
    31    11    30    1
    32    11    31    1
    33    12    13    2
    34    12    32    1
    35    13    33    1
    36    14    34    1
    37    14    35    1
    38    14    36    1
