@<TRIPOS>MOLECULE
IMPHY007256
 19 20 0 0 0
SMALL
GASTEIGER

@<TRIPOS>ATOM
      1 O           3.7320   -1.8450    0.0000 O.2     1  UNL1       -0.5060
      2 O           3.7320    2.1550    0.0000 O.2     1  UNL1       -0.2832
      3 O           2.0000    1.1550    0.0000 O.2     1  UNL1       -0.2837
      4 C           4.5981   -0.3450    0.0000 C.ar    1  UNL1        0.0275
      5 C           4.5981    0.6550    0.0000 C.ar    1  UNL1        0.0361
      6 C           3.7320   -0.8450    0.0000 C.2     1  UNL1        0.1284
      7 C           3.7320    1.1550    0.0000 C.2     1  UNL1        0.2331
      8 C           5.4920   -0.8797    0.0000 C.ar    1  UNL1       -0.0504
      9 C           5.4920    1.1897    0.0000 C.ar    1  UNL1       -0.0501
     10 C           2.8660   -0.3450    0.0000 C.2     1  UNL1        0.0310
     11 C           2.8660    0.6550    0.0000 C.2     1  UNL1        0.2293
     12 C           6.3981   -0.3658    0.0000 C.ar    1  UNL1       -0.0611
     13 C           6.3981    0.6758    0.0000 C.ar    1  UNL1       -0.0610
     14 H           5.4848   -1.4996    0.0000 H       1  UNL1        0.0625
     15 H           5.4848    1.8096    0.0000 H       1  UNL1        0.0625
     16 H           2.3291   -0.6550    0.0000 H       1  UNL1        0.0694
     17 H           6.9338   -0.6779    0.0000 H       1  UNL1        0.0618
     18 H           6.9338    0.9879    0.0000 H       1  UNL1        0.0618
     19 H           3.1951   -2.1550    0.0000 H       1  UNL1        0.2922
@<TRIPOS>BOND
     1     1     6    1
     2     1    19    1
     3     2     7    2
     4     3    11    2
     5     4     5   ar
     6     4     6    1
     7     4     8   ar
     8     5     7    1
     9     5     9   ar
    10     6    10    2
    11     7    11    1
    12     8    12   ar
    13     8    14    1
    14     9    13   ar
    15     9    15    1
    16    10    11    1
    17    10    16    1
    18    12    13   ar
    19    12    17    1
    20    13    18    1
