@<TRIPOS>MOLECULE
IMPHY005400
 58 59 0 0 0
SMALL
GASTEIGER

@<TRIPOS>ATOM
      1 O           2.5000    0.9518    0.0000 O.3     1  UNL1       -0.3886
      2 O           3.5000   -3.0482    0.0000 O.3     1  UNL1       -0.3848
      3 C           5.2320    0.9518    0.0000 C.3     1  UNL1       -0.0233
      4 C           5.2320    1.9518    0.0000 C.3     1  UNL1       -0.0300
      5 C           4.3660    0.4518    0.0000 C.3     1  UNL1       -0.0066
      6 C           6.1260    2.4865    0.0000 C.3     1  UNL1       -0.0315
      7 C           3.5000    0.9518    0.0000 C.3     1  UNL1        0.0666
      8 C           6.1260    0.4171    0.0000 C.3     1  UNL1       -0.0470
      9 C           4.3660    2.4518    0.0000 C.3     1  UNL1       -0.0466
     10 C           3.5000    1.9518    0.0000 C.3     1  UNL1       -0.0237
     11 C           7.0321    1.9726    0.0000 C.3     1  UNL1       -0.0476
     12 C           7.0321    0.9310    0.0000 C.3     1  UNL1       -0.0521
     13 C           5.2320   -0.0482    0.0000 C.3     1  UNL1       -0.0589
     14 C           4.3660   -0.5482    0.0000 C.3     1  UNL1       -0.0442
     15 C           6.6160    3.3582    0.0000 C.3     1  UNL1       -0.0595
     16 C           5.6160    3.3466    0.0000 C.3     1  UNL1       -0.0595
     17 C           3.0000    0.0858    0.0000 C.3     1  UNL1       -0.0358
     18 C           3.5000   -1.0482    0.0000 C.3     1  UNL1       -0.0203
     19 C           3.5000   -2.0482    0.0000 C.3     1  UNL1        0.0811
     20 C           4.5000   -2.0482    0.0000 C.3     1  UNL1       -0.0325
     21 C           2.5000   -2.0482    0.0000 C.2     1  UNL1       -0.0602
     22 C           2.0000   -2.9142    0.0000 C.2     1  UNL1       -0.1000
     23 H           5.2255    2.8018    0.0000 H       1  UNL1        0.0311
     24 H           3.8291    0.1418    0.0000 H       1  UNL1        0.0334
     25 H           5.7214   -0.0527    0.0000 H       1  UNL1        0.0271
     26 H           6.5196   -0.0619    0.0000 H       1  UNL1        0.0271
     27 H           4.7646    2.9267    0.0000 H       1  UNL1        0.0269
     28 H           3.9675    2.9267    0.0000 H       1  UNL1        0.0269
     29 H           3.2880    2.5344    0.0000 H       1  UNL1        0.0293
     30 H           2.8894    1.8441    0.0000 H       1  UNL1        0.0293
     31 H           7.6429    1.8665    0.0000 H       1  UNL1        0.0271
     32 H           7.2411    2.5563    0.0000 H       1  UNL1        0.0271
     33 H           7.2411    0.3473    0.0000 H       1  UNL1        0.0266
     34 H           7.6429    1.0371    0.0000 H       1  UNL1        0.0266
     35 H           4.6120   -0.0482    0.0000 H       1  UNL1        0.0235
     36 H           5.2320   -0.6682    0.0000 H       1  UNL1        0.0235
     37 H           5.8520   -0.0482    0.0000 H       1  UNL1        0.0235
     38 H           4.5781   -1.1308    0.0000 H       1  UNL1        0.0270
     39 H           4.9766   -0.4405    0.0000 H       1  UNL1        0.0270
     40 H           7.1564    3.0544    0.0000 H       1  UNL1        0.0235
     41 H           6.9197    3.8987    0.0000 H       1  UNL1        0.0235
     42 H           6.0755    3.6620    0.0000 H       1  UNL1        0.0235
     43 H           6.1493    3.6628    0.0000 H       1  UNL1        0.0235
     44 H           5.2998    3.8800    0.0000 H       1  UNL1        0.0235
     45 H           5.0827    3.0304    0.0000 H       1  UNL1        0.0235
     46 H           2.4631    0.3958    0.0000 H       1  UNL1        0.0257
     47 H           2.6900   -0.4512    0.0000 H       1  UNL1        0.0257
     48 H           3.5369   -0.2242    0.0000 H       1  UNL1        0.0257
     49 H           3.2880   -0.4656    0.0000 H       1  UNL1        0.0296
     50 H           2.8894   -1.1559    0.0000 H       1  UNL1        0.0296
     51 H           2.1900    1.4887    0.0000 H       1  UNL1        0.2102
     52 H           4.5000   -2.6682    0.0000 H       1  UNL1        0.0260
     53 H           5.1200   -2.0482    0.0000 H       1  UNL1        0.0260
     54 H           4.5000   -1.4282    0.0000 H       1  UNL1        0.0260
     55 H           2.1900   -1.5113    0.0000 H       1  UNL1        0.0594
     56 H           2.9631   -3.3582    0.0000 H       1  UNL1        0.2106
     57 H           1.3800   -2.9142    0.0000 H       1  UNL1        0.0533
     58 H           2.3100   -3.4512    0.0000 H       1  UNL1        0.0533
@<TRIPOS>BOND
     1     7     1    1
     2     1    51    1
     3    19     2    1
     4     2    56    1
     5     3     4    1
     6     3     5    1
     7     3     8    1
     8     3    13    1
     9     4     6    1
    10     4     9    1
    11     4    23    1
    12     5     7    1
    13     5    14    1
    14     5    24    1
    15     6    11    1
    16     6    15    1
    17     6    16    1
    18     7    10    1
    19     7    17    1
    20     8    12    1
    21     8    25    1
    22     8    26    1
    23     9    10    1
    24     9    27    1
    25     9    28    1
    26    10    29    1
    27    10    30    1
    28    11    12    1
    29    11    31    1
    30    11    32    1
    31    12    33    1
    32    12    34    1
    33    13    35    1
    34    13    36    1
    35    13    37    1
    36    14    18    1
    37    14    38    1
    38    14    39    1
    39    15    40    1
    40    15    41    1
    41    15    42    1
    42    16    43    1
    43    16    44    1
    44    16    45    1
    45    17    46    1
    46    17    47    1
    47    17    48    1
    48    18    19    1
    49    18    49    1
    50    18    50    1
    51    19    20    1
    52    19    21    1
    53    20    52    1
    54    20    53    1
    55    20    54    1
    56    21    22    2
    57    21    55    1
    58    22    57    1
    59    22    58    1
