@<TRIPOS>MOLECULE
IMPHY012891
 42 44 0 0 0
SMALL
GASTEIGER

@<TRIPOS>ATOM
      1 O          11.2251   -1.4953    0.0000 O.3     1  UNL1       -0.4815
      2 O           9.4651    1.5394    0.0000 O.3     1  UNL1       -0.5053
      3 O           7.7331    1.5394    0.0000 O.2     1  UNL1       -0.2872
      4 O           2.5369   -1.4606    0.0000 O.3     1  UNL1       -0.5068
      5 C          12.1312   -0.9814    0.0000 C.3     1  UNL1        0.1235
      6 C          12.1312    0.0602    0.0000 C.2     1  UNL1       -0.0408
      7 C          10.3312    0.0394    0.0000 C.ar    1  UNL1        0.0586
      8 C          10.3312   -0.9606    0.0000 C.ar    1  UNL1        0.1324
      9 C          13.1312   -0.9853    0.0000 C.3     1  UNL1       -0.0215
     10 C          12.6278   -1.8494    0.0000 C.3     1  UNL1       -0.0215
     11 C          11.2251    0.5740    0.0000 C.2     1  UNL1       -0.0478
     12 C           9.4651    0.5394    0.0000 C.ar    1  UNL1        0.1382
     13 C           9.4651   -1.4606    0.0000 C.ar    1  UNL1       -0.0184
     14 C           8.5991    0.0394    0.0000 C.ar    1  UNL1        0.0638
     15 C           8.5991   -0.9606    0.0000 C.ar    1  UNL1       -0.0439
     16 C           7.7331    0.5394    0.0000 C.2     1  UNL1        0.1896
     17 C           6.8671    0.0394    0.0000 C.2     1  UNL1       -0.0137
     18 C           6.0010    0.5394    0.0000 C.2     1  UNL1       -0.0510
     19 C           5.1350    0.0394    0.0000 C.ar    1  UNL1       -0.0247
     20 C           5.1350   -0.9606    0.0000 C.ar    1  UNL1       -0.0511
     21 C           4.2690    0.5394    0.0000 C.ar    1  UNL1       -0.0511
     22 C           4.2690   -1.4606    0.0000 C.ar    1  UNL1       -0.0196
     23 C           3.4030    0.0394    0.0000 C.ar    1  UNL1       -0.0196
     24 C           3.4030   -0.9606    0.0000 C.ar    1  UNL1        0.1169
     25 H          12.6669    0.3723    0.0000 H       1  UNL1        0.0611
     26 H          13.1288   -1.6053    0.0000 H       1  UNL1        0.0271
     27 H          13.7512   -0.9877    0.0000 H       1  UNL1        0.0271
     28 H          13.1336   -0.3653    0.0000 H       1  UNL1        0.0271
     29 H          12.0897   -2.1573    0.0000 H       1  UNL1        0.0271
     30 H          12.9358   -2.3875    0.0000 H       1  UNL1        0.0271
     31 H          13.1660   -1.5414    0.0000 H       1  UNL1        0.0271
     32 H          11.2179    1.1940    0.0000 H       1  UNL1        0.0624
     33 H           9.4651   -2.0806    0.0000 H       1  UNL1        0.0654
     34 H           8.0622   -1.2706    0.0000 H       1  UNL1        0.0627
     35 H          10.0021    1.8494    0.0000 H       1  UNL1        0.2922
     36 H           6.8671   -0.5806    0.0000 H       1  UNL1        0.0656
     37 H           6.0010    1.1594    0.0000 H       1  UNL1        0.0625
     38 H           5.6720   -1.2706    0.0000 H       1  UNL1        0.0625
     39 H           4.2690    1.1594    0.0000 H       1  UNL1        0.0625
     40 H           4.2690   -2.0806    0.0000 H       1  UNL1        0.0654
     41 H           2.8660    0.3494    0.0000 H       1  UNL1        0.0654
     42 H           2.0000   -1.1506    0.0000 H       1  UNL1        0.2921
@<TRIPOS>BOND
     1     1     5    1
     2     1     8    1
     3     2    12    1
     4     2    35    1
     5     3    16    2
     6     4    24    1
     7     4    42    1
     8     5     6    1
     9     5     9    1
    10     5    10    1
    11     6    11    2
    12     6    25    1
    13     7     8   ar
    14     7    11    1
    15     7    12   ar
    16     8    13   ar
    17     9    26    1
    18     9    27    1
    19     9    28    1
    20    10    29    1
    21    10    30    1
    22    10    31    1
    23    11    32    1
    24    12    14   ar
    25    13    15   ar
    26    13    33    1
    27    14    15   ar
    28    14    16    1
    29    15    34    1
    30    16    17    1
    31    17    18    2
    32    17    36    1
    33    18    19    1
    34    18    37    1
    35    19    20   ar
    36    19    21   ar
    37    20    22   ar
    38    20    38    1
    39    21    23   ar
    40    21    39    1
    41    22    24   ar
    42    22    40    1
    43    23    24   ar
    44    23    41    1
