@<TRIPOS>MOLECULE
IMPHY012702
 194 204 0 0 0
SMALL
GASTEIGER

@<TRIPOS>ATOM
      1 O           6.8671   -2.8147    0.0000 O.3     1  UNL1       -0.3449
      2 O           8.6209    6.4648    0.0000 O.3     1  UNL1       -0.4318
      3 O           9.5042    4.9749    0.0000 O.2     1  UNL1       -0.2501
      4 O           5.1350   -2.8147    0.0000 O.3     1  UNL1       -0.3405
      5 O           6.8671   -4.8147    0.0000 O.3     1  UNL1       -0.3378
      6 O           9.4695    7.9747    0.0000 O.3     1  UNL1       -0.3368
      7 O           5.1350   -5.8147    0.0000 O.3     1  UNL1       -0.3864
      8 O          10.3644    5.4849    0.0000 O.3     1  UNL1       -0.3366
      9 O           3.4030   -4.8147    0.0000 O.3     1  UNL1       -0.3865
     10 O          12.0847    6.5048    0.0000 O.3     1  UNL1       -0.3864
     11 O           6.0010   -6.3147    0.0000 O.3     1  UNL1       -0.3405
     12 O           2.5369   -3.3147    0.0000 O.3     1  UNL1       -0.3924
     13 O          12.0616    8.5047    0.0000 O.3     1  UNL1       -0.3869
     14 O           8.5991   -5.8147    0.0000 O.3     1  UNL1       -0.3841
     15 O          12.0963    5.5049    0.0000 O.3     1  UNL1       -0.3431
     16 O           8.5991   -7.8147    0.0000 O.3     1  UNL1       -0.3864
     17 O           6.8671   -8.8147    0.0000 O.3     1  UNL1       -0.3865
     18 O          10.3875    3.4850    0.0000 O.3     1  UNL1       -0.3841
     19 O          12.1310    2.5051    0.0000 O.3     1  UNL1       -0.3864
     20 O          13.8514    3.5251    0.0000 O.3     1  UNL1       -0.3402
     21 O           5.1350   -8.8147    0.0000 O.3     1  UNL1       -0.3924
     22 O          14.7000    5.0350    0.0000 O.3     1  UNL1       -0.3461
     23 O          15.5949    2.5452    0.0000 O.3     1  UNL1       -0.3841
     24 O          17.3152    3.5651    0.0000 O.3     1  UNL1       -0.3401
     25 O          17.2921    5.5650    0.0000 O.3     1  UNL1       -0.3868
     26 O          18.1639    5.0750    0.0000 O.3     1  UNL1       -0.3461
     27 O          19.0587    2.5852    0.0000 O.3     1  UNL1       -0.3841
     28 O          20.7791    3.6052    0.0000 O.3     1  UNL1       -0.3864
     29 O          20.7560    5.6050    0.0000 O.3     1  UNL1       -0.3869
     30 C           7.7681    1.8856    0.0000 C.3     1  UNL1       -0.0194
     31 C           6.9040    1.3822    0.0000 C.3     1  UNL1       -0.0257
     32 C           6.8920    0.3407    0.0000 C.3     1  UNL1       -0.0250
     33 C           7.7643    2.8856    0.0000 C.3     1  UNL1       -0.0051
     34 C           7.7920   -0.1836    0.0000 C.3     1  UNL1       -0.0278
     35 C           8.6801    1.3822    0.0000 C.3     1  UNL1       -0.0463
     36 C           7.8046   -1.2685    0.0000 C.3     1  UNL1       -0.0052
     37 C           8.6921    0.3407    0.0000 C.3     1  UNL1       -0.0486
     38 C           6.8963    3.3822    0.0000 C.2     1  UNL1       -0.0629
     39 C           6.8762    4.4236    0.0000 C.3     1  UNL1       -0.0031
     40 C           6.0361    1.8789    0.0000 C.3     1  UNL1       -0.0306
     41 C           5.9421   -0.1836    0.0000 C.3     1  UNL1       -0.0447
     42 C           8.6723    3.3959    0.0000 C.3     1  UNL1       -0.0424
     43 C           7.7722    4.9549    0.0000 C.3     1  UNL1        0.0744
     44 C           8.7522    2.0630    0.0000 C.3     1  UNL1       -0.0585
     45 C           6.8671   -1.8147    0.0000 C.3     1  UNL1        0.0672
     46 C           8.6763    4.4375    0.0000 C.3     1  UNL1       -0.0359
     47 C           6.0279    0.8440    0.0000 C.3     1  UNL1       -0.0590
     48 C           5.9295   -1.2685    0.0000 C.3     1  UNL1       -0.0255
     49 C           6.0322    2.8789    0.0000 C.2     1  UNL1       -0.0836
     50 C           8.7497    2.7157    0.0000 C.3     1  UNL1       -0.0553
     51 C           5.9223    4.9406    0.0000 C.3     1  UNL1       -0.0403
     52 C           7.7764    6.0399    0.0000 C.3     1  UNL1       -0.0362
     53 C           5.9014    6.0254    0.0000 C.3     1  UNL1       -0.0343
     54 C           8.8046   -1.2608    0.0000 C.3     1  UNL1       -0.0572
     55 C           8.3113   -2.1307    0.0000 C.3     1  UNL1       -0.0572
     56 C           6.8347    6.5787    0.0000 C.3     1  UNL1       -0.0468
     57 C           8.6324    5.4648    0.0000 C.2     1  UNL1        0.3161
     58 C           5.3881    6.8836    0.0000 C.3     1  UNL1       -0.0598
     59 C           4.9015    6.0100    0.0000 C.3     1  UNL1       -0.0598
     60 C           6.0010   -3.3147    0.0000 C.3     1  UNL1        0.1886
     61 C           6.0010   -4.3147    0.0000 C.3     1  UNL1        0.1406
     62 C           9.4810    6.9748    0.0000 C.3     1  UNL1        0.2338
     63 C           5.1350   -4.8147    0.0000 C.3     1  UNL1        0.1144
     64 C           4.2690   -3.3147    0.0000 C.3     1  UNL1        0.1130
     65 C           4.2690   -4.3147    0.0000 C.3     1  UNL1        0.1119
     66 C          10.3528    6.4848    0.0000 C.3     1  UNL1        0.1520
     67 C          11.2130    6.9948    0.0000 C.3     1  UNL1        0.1152
     68 C           3.4030   -2.8147    0.0000 C.3     1  UNL1        0.0730
     69 C           6.8671   -5.8147    0.0000 C.3     1  UNL1        0.1885
     70 C          10.3297    8.4847    0.0000 C.3     1  UNL1        0.0802
     71 C          11.2014    7.9947    0.0000 C.3     1  UNL1        0.1070
     72 C           7.7331   -6.3147    0.0000 C.3     1  UNL1        0.1341
     73 C          11.2361    4.9949    0.0000 C.3     1  UNL1        0.1885
     74 C           7.7331   -7.3147    0.0000 C.3     1  UNL1        0.1141
     75 C           6.0010   -7.3147    0.0000 C.3     1  UNL1        0.1130
     76 C           6.8671   -7.8147    0.0000 C.3     1  UNL1        0.1119
     77 C          11.2477    3.9950    0.0000 C.3     1  UNL1        0.1341
     78 C          12.1194    3.5050    0.0000 C.3     1  UNL1        0.1143
     79 C           5.1350   -7.8147    0.0000 C.3     1  UNL1        0.0730
     80 C          12.9681    5.0150    0.0000 C.3     1  UNL1        0.0877
     81 C          12.9796    4.0150    0.0000 C.3     1  UNL1        0.1160
     82 C          13.8282    5.5249    0.0000 C.3     1  UNL1       -0.0361
     83 C          14.7115    4.0350    0.0000 C.3     1  UNL1        0.1880
     84 C          15.5833    3.5451    0.0000 C.3     1  UNL1        0.1345
     85 C          16.4435    4.0551    0.0000 C.3     1  UNL1        0.1202
     86 C          15.5602    5.5450    0.0000 C.3     1  UNL1        0.0792
     87 C          16.4319    5.0550    0.0000 C.3     1  UNL1        0.1073
     88 C          18.1754    4.0751    0.0000 C.3     1  UNL1        0.1880
     89 C          19.0472    3.5852    0.0000 C.3     1  UNL1        0.1341
     90 C          19.9074    4.0951    0.0000 C.3     1  UNL1        0.1137
     91 C          19.0240    5.5850    0.0000 C.3     1  UNL1        0.0792
     92 C          19.8958    5.0951    0.0000 C.3     1  UNL1        0.1069
     93 H           7.6385    0.9544    0.0000 H       1  UNL1        0.0315
     94 H           8.5314   -0.6029    0.0000 H       1  UNL1        0.0312
     95 H           9.2921    1.2832    0.0000 H       1  UNL1        0.0271
     96 H           8.8824    1.9683    0.0000 H       1  UNL1        0.0271
     97 H           8.9079   -0.2406    0.0000 H       1  UNL1        0.0268
     98 H           9.3017    0.4538    0.0000 H       1  UNL1        0.0268
     99 H           6.1502    3.9817    0.0000 H       1  UNL1        0.0357
    100 H           5.4251    1.9842    0.0000 H       1  UNL1        0.0310
    101 H           5.8263    1.2955    0.0000 H       1  UNL1        0.0310
    102 H           5.7398    0.4024    0.0000 H       1  UNL1        0.0271
    103 H           5.3300   -0.2826    0.0000 H       1  UNL1        0.0271
    104 H           8.8791    2.8114    0.0000 H       1  UNL1        0.0274
    105 H           9.2836    3.4996    0.0000 H       1  UNL1        0.0274
    106 H           8.8623    1.4528    0.0000 H       1  UNL1        0.0235
    107 H           9.3624    2.1730    0.0000 H       1  UNL1        0.0235
    108 H           8.6422    2.6732    0.0000 H       1  UNL1        0.0235
    109 H           7.4046   -2.1236    0.0000 H       1  UNL1        0.0602
    110 H           9.2868    4.3291    0.0000 H       1  UNL1        0.0276
    111 H           8.8876    5.0204    0.0000 H       1  UNL1        0.0276
    112 H           6.3400    1.3797    0.0000 H       1  UNL1        0.0235
    113 H           5.4922    1.1561    0.0000 H       1  UNL1        0.0235
    114 H           5.7158    0.3083    0.0000 H       1  UNL1        0.0235
    115 H           5.3199   -1.1554    0.0000 H       1  UNL1        0.0290
    116 H           5.7137   -1.8498    0.0000 H       1  UNL1        0.0290
    117 H           5.4941    3.1868    0.0000 H       1  UNL1        0.0572
    118 H           8.6444    2.1047    0.0000 H       1  UNL1        0.0238
    119 H           9.3607    2.6104    0.0000 H       1  UNL1        0.0238
    120 H           8.8550    3.3267    0.0000 H       1  UNL1        0.0238
    121 H           5.3095    5.0349    0.0000 H       1  UNL1        0.0276
    122 H           5.7246    4.3530    0.0000 H       1  UNL1        0.0276
    123 H           8.3869    5.9314    0.0000 H       1  UNL1        0.0276
    124 H           7.9877    6.6227    0.0000 H       1  UNL1        0.0276
    125 H           8.8094   -1.8808    0.0000 H       1  UNL1        0.0236
    126 H           9.4246   -1.2561    0.0000 H       1  UNL1        0.0236
    127 H           8.7998   -0.6409    0.0000 H       1  UNL1        0.0236
    128 H           7.7767   -2.4448    0.0000 H       1  UNL1        0.0236
    129 H           8.6254   -2.6652    0.0000 H       1  UNL1        0.0236
    130 H           8.8458   -1.8166    0.0000 H       1  UNL1        0.0236
    131 H           7.2302    7.0562    0.0000 H       1  UNL1        0.0271
    132 H           6.4319    7.0501    0.0000 H       1  UNL1        0.0271
    133 H           5.9202    7.2018    0.0000 H       1  UNL1        0.0235
    134 H           5.0699    7.4157    0.0000 H       1  UNL1        0.0235
    135 H           4.8560    6.5654    0.0000 H       1  UNL1        0.0235
    136 H           4.8920    6.6299    0.0000 H       1  UNL1        0.0235
    137 H           4.2816    6.0004    0.0000 H       1  UNL1        0.0235
    138 H           4.9111    5.3900    0.0000 H       1  UNL1        0.0235
    139 H           6.5380   -3.6247    0.0000 H       1  UNL1        0.0938
    140 H           6.0010   -4.9347    0.0000 H       1  UNL1        0.0675
    141 H           9.4882    6.3548    0.0000 H       1  UNL1        0.1085
    142 H           4.5981   -5.1247    0.0000 H       1  UNL1        0.0648
    143 H           4.2690   -2.6947    0.0000 H       1  UNL1        0.0647
    144 H           4.2690   -4.9347    0.0000 H       1  UNL1        0.0647
    145 H          10.8933    6.1810    0.0000 H       1  UNL1        0.0687
    146 H          11.7463    7.3110    0.0000 H       1  UNL1        0.0648
    147 H           3.8015   -2.3397    0.0000 H       1  UNL1        0.0584
    148 H           3.0044   -2.3397    0.0000 H       1  UNL1        0.0584
    149 H           7.4040   -5.5047    0.0000 H       1  UNL1        0.0938
    150 H          10.7227    8.9642    0.0000 H       1  UNL1        0.0588
    151 H           9.9257    8.9550    0.0000 H       1  UNL1        0.0588
    152 H          11.1943    8.6147    0.0000 H       1  UNL1        0.0643
    153 H           4.5981   -6.1247    0.0000 H       1  UNL1        0.2100
    154 H           3.4030   -5.4347    0.0000 H       1  UNL1        0.2100
    155 H           8.2700   -6.6247    0.0000 H       1  UNL1        0.0671
    156 H          11.2289    5.6149    0.0000 H       1  UNL1        0.0938
    157 H          12.6181    6.8210    0.0000 H       1  UNL1        0.2100
    158 H           2.0000   -3.0047    0.0000 H       1  UNL1        0.2095
    159 H           7.7331   -7.9347    0.0000 H       1  UNL1        0.0648
    160 H          12.0544    9.1247    0.0000 H       1  UNL1        0.2100
    161 H           5.4641   -7.0047    0.0000 H       1  UNL1        0.0647
    162 H           7.4040   -8.1247    0.0000 H       1  UNL1        0.0647
    163 H          10.7072    4.2988    0.0000 H       1  UNL1        0.0671
    164 H           8.5991   -5.1947    0.0000 H       1  UNL1        0.2101
    165 H          11.5861    3.1888    0.0000 H       1  UNL1        0.0648
    166 H           4.9230   -7.2320    0.0000 H       1  UNL1        0.0584
    167 H           4.5244   -7.9223    0.0000 H       1  UNL1        0.0584
    168 H          12.9609    5.6349    0.0000 H       1  UNL1        0.0621
    169 H          13.5129    4.3312    0.0000 H       1  UNL1        0.0650
    170 H           9.1360   -7.5047    0.0000 H       1  UNL1        0.2100
    171 H           7.4040   -9.1247    0.0000 H       1  UNL1        0.2100
    172 H          10.3947    2.8650    0.0000 H       1  UNL1        0.2101
    173 H          14.1444    4.9916    0.0000 H       1  UNL1        0.0255
    174 H          14.3616    5.8411    0.0000 H       1  UNL1        0.0255
    175 H          13.5120    6.0582    0.0000 H       1  UNL1        0.0255
    176 H          12.6715    2.2013    0.0000 H       1  UNL1        0.2100
    177 H           5.6720   -9.1247    0.0000 H       1  UNL1        0.2095
    178 H          14.7187    3.4151    0.0000 H       1  UNL1        0.0937
    179 H          16.1238    3.2413    0.0000 H       1  UNL1        0.0671
    180 H          16.9768    4.3713    0.0000 H       1  UNL1        0.0651
    181 H          15.9532    6.0245    0.0000 H       1  UNL1        0.0587
    182 H          15.1562    6.0153    0.0000 H       1  UNL1        0.0587
    183 H          16.4248    5.6750    0.0000 H       1  UNL1        0.0643
    184 H          16.1353    2.2414    0.0000 H       1  UNL1        0.2101
    185 H          17.2849    6.1849    0.0000 H       1  UNL1        0.2100
    186 H          18.1826    3.4551    0.0000 H       1  UNL1        0.0937
    187 H          19.5877    3.2814    0.0000 H       1  UNL1        0.0671
    188 H          20.4407    4.4113    0.0000 H       1  UNL1        0.0647
    189 H          19.4170    6.0645    0.0000 H       1  UNL1        0.0587
    190 H          18.6200    6.0553    0.0000 H       1  UNL1        0.0587
    191 H          19.8886    5.7150    0.0000 H       1  UNL1        0.0643
    192 H          19.5992    2.2814    0.0000 H       1  UNL1        0.2101
    193 H          21.3124    3.9214    0.0000 H       1  UNL1        0.2100
    194 H          20.7488    6.2250    0.0000 H       1  UNL1        0.2100
@<TRIPOS>BOND
     1    45     1    1
     2    60     1    1
     3     2    57    1
     4    62     2    1
     5     3    57    2
     6     4    60    1
     7     4    64    1
     8    61     5    1
     9    69     5    1
    10     6    62    1
    11     6    70    1
    12    63     7    1
    13     7   153    1
    14    66     8    1
    15    73     8    1
    16    65     9    1
    17     9   154    1
    18    67    10    1
    19    10   157    1
    20    11    69    1
    21    11    75    1
    22    12    68    1
    23    12   158    1
    24    71    13    1
    25    13   160    1
    26    72    14    1
    27    14   164    1
    28    15    73    1
    29    15    80    1
    30    74    16    1
    31    16   170    1
    32    76    17    1
    33    17   171    1
    34    77    18    1
    35    18   172    1
    36    78    19    1
    37    19   176    1
    38    81    20    1
    39    83    20    1
    40    21    79    1
    41    21   177    1
    42    22    83    1
    43    22    86    1
    44    84    23    1
    45    23   184    1
    46    85    24    1
    47    88    24    1
    48    87    25    1
    49    25   185    1
    50    26    88    1
    51    26    91    1
    52    89    27    1
    53    27   192    1
    54    90    28    1
    55    28   193    1
    56    92    29    1
    57    29   194    1
    58    30    31    1
    59    30    33    1
    60    30    35    1
    61    30    44    1
    62    31    32    1
    63    31    40    1
    64    31    93    1
    65    32    34    1
    66    32    41    1
    67    32    47    1
    68    33    38    1
    69    33    42    1
    70    33    50    1
    71    34    36    1
    72    34    37    1
    73    34    94    1
    74    35    37    1
    75    35    95    1
    76    35    96    1
    77    36    45    1
    78    36    54    1
    79    36    55    1
    80    37    97    1
    81    37    98    1
    82    38    39    1
    83    38    49    2
    84    39    43    1
    85    39    51    1
    86    39    99    1
    87    40    49    1
    88    40   100    1
    89    40   101    1
    90    41    48    1
    91    41   102    1
    92    41   103    1
    93    42    46    1
    94    42   104    1
    95    42   105    1
    96    43    46    1
    97    43    52    1
    98    43    57    1
    99    44   106    1
   100    44   107    1
   101    44   108    1
   102    45    48    1
   103    45   109    1
   104    46   110    1
   105    46   111    1
   106    47   112    1
   107    47   113    1
   108    47   114    1
   109    48   115    1
   110    48   116    1
   111    49   117    1
   112    50   118    1
   113    50   119    1
   114    50   120    1
   115    51    53    1
   116    51   121    1
   117    51   122    1
   118    52    56    1
   119    52   123    1
   120    52   124    1
   121    53    56    1
   122    53    58    1
   123    53    59    1
   124    54   125    1
   125    54   126    1
   126    54   127    1
   127    55   128    1
   128    55   129    1
   129    55   130    1
   130    56   131    1
   131    56   132    1
   132    58   133    1
   133    58   134    1
   134    58   135    1
   135    59   136    1
   136    59   137    1
   137    59   138    1
   138    60    61    1
   139    60   139    1
   140    61    63    1
   141    61   140    1
   142    62    66    1
   143    62   141    1
   144    63    65    1
   145    63   142    1
   146    64    65    1
   147    64    68    1
   148    64   143    1
   149    65   144    1
   150    66    67    1
   151    66   145    1
   152    67    71    1
   153    67   146    1
   154    68   147    1
   155    68   148    1
   156    69    72    1
   157    69   149    1
   158    70    71    1
   159    70   150    1
   160    70   151    1
   161    71   152    1
   162    72    74    1
   163    72   155    1
   164    73    77    1
   165    73   156    1
   166    74    76    1
   167    74   159    1
   168    75    76    1
   169    75    79    1
   170    75   161    1
   171    76   162    1
   172    77    78    1
   173    77   163    1
   174    78    81    1
   175    78   165    1
   176    79   166    1
   177    79   167    1
   178    80    81    1
   179    80    82    1
   180    80   168    1
   181    81   169    1
   182    82   173    1
   183    82   174    1
   184    82   175    1
   185    83    84    1
   186    83   178    1
   187    84    85    1
   188    84   179    1
   189    85    87    1
   190    85   180    1
   191    86    87    1
   192    86   181    1
   193    86   182    1
   194    87   183    1
   195    88    89    1
   196    88   186    1
   197    89    90    1
   198    89   187    1
   199    90    92    1
   200    90   188    1
   201    91    92    1
   202    91   189    1
   203    91   190    1
   204    92   191    1
