@<TRIPOS>MOLECULE
IMPHY008377
 30 30 0 0 0
SMALL
GASTEIGER

@<TRIPOS>ATOM
      1 O           4.5981    2.5000    0.0000 O.3     1  UNL1       -0.4885
      2 O           6.3301    1.5000    0.0000 O.3     1  UNL1       -0.4913
      3 O           2.8660    1.5000    0.0000 O.3     1  UNL1       -0.4913
      4 O           3.7320   -2.0000    0.0000 O.3     1  UNL1       -0.4644
      5 O           5.4641   -2.0000    0.0000 O.2     1  UNL1       -0.2450
      6 C           4.5981    1.5000    0.0000 C.ar    1  UNL1        0.2035
      7 C           5.4641    1.0000    0.0000 C.ar    1  UNL1        0.1660
      8 C           3.7320    1.0000    0.0000 C.ar    1  UNL1        0.1660
      9 C           4.5981   -0.5000    0.0000 C.ar    1  UNL1        0.0661
     10 C           5.4641   -0.0000    0.0000 C.ar    1  UNL1       -0.0021
     11 C           3.7320    0.0000    0.0000 C.ar    1  UNL1       -0.0021
     12 C           4.5981   -1.5000    0.0000 C.2     1  UNL1        0.3392
     13 C           5.4641    3.0000    0.0000 C.3     1  UNL1        0.0791
     14 C           7.1962    1.0000    0.0000 C.3     1  UNL1        0.0790
     15 C           2.0000    1.0000    0.0000 C.3     1  UNL1        0.0790
     16 C           3.7320   -3.0000    0.0000 C.3     1  UNL1        0.0820
     17 H           6.0010   -0.3100    0.0000 H       1  UNL1        0.0663
     18 H           3.1951   -0.3100    0.0000 H       1  UNL1        0.0663
     19 H           5.7741    2.4631    0.0000 H       1  UNL1        0.0660
     20 H           6.0010    3.3100    0.0000 H       1  UNL1        0.0660
     21 H           5.1541    3.5369    0.0000 H       1  UNL1        0.0660
     22 H           6.8862    0.4631    0.0000 H       1  UNL1        0.0660
     23 H           7.7331    0.6900    0.0000 H       1  UNL1        0.0660
     24 H           7.5062    1.5369    0.0000 H       1  UNL1        0.0660
     25 H           1.6900    1.5369    0.0000 H       1  UNL1        0.0660
     26 H           1.4631    0.6900    0.0000 H       1  UNL1        0.0660
     27 H           2.3100    0.4631    0.0000 H       1  UNL1        0.0660
     28 H           3.1120   -3.0000    0.0000 H       1  UNL1        0.0661
     29 H           3.7320   -3.6200    0.0000 H       1  UNL1        0.0661
     30 H           4.3520   -3.0000    0.0000 H       1  UNL1        0.0661
@<TRIPOS>BOND
     1     1     6    1
     2     1    13    1
     3     2     7    1
     4     2    14    1
     5     3     8    1
     6     3    15    1
     7     4    12    1
     8     4    16    1
     9     5    12    2
    10     6     7   ar
    11     6     8   ar
    12     7    10   ar
    13     8    11   ar
    14     9    10   ar
    15     9    11   ar
    16     9    12    1
    17    10    17    1
    18    11    18    1
    19    13    19    1
    20    13    20    1
    21    13    21    1
    22    14    22    1
    23    14    23    1
    24    14    24    1
    25    15    25    1
    26    15    26    1
    27    15    27    1
    28    16    28    1
    29    16    29    1
    30    16    30    1
