@<TRIPOS>MOLECULE
IMPHY002690
 59 62 0 0 0
SMALL
GASTEIGER

@<TRIPOS>ATOM
      1 O           8.8709    3.1708    0.0000 O.3     1  UNL1       -0.4569
      2 O           6.8671   -0.8127    0.0000 O.3     1  UNL1       -0.3449
      3 O           5.1350   -0.8127    0.0000 O.3     1  UNL1       -0.3405
      4 O          10.3707    4.1226    0.0000 O.2     1  UNL1       -0.2453
      5 O           6.8671   -2.8126    0.0000 O.3     1  UNL1       -0.3841
      6 O           5.1350   -3.8126    0.0000 O.3     1  UNL1       -0.3864
      7 O           3.4030   -2.8126    0.0000 O.3     1  UNL1       -0.3865
      8 O           2.5369   -1.3127    0.0000 O.3     1  UNL1       -0.3924
      9 C           7.7671    0.7116    0.0000 C.3     1  UNL1        0.0042
     10 C           7.7787    1.7116    0.0000 C.3     1  UNL1        0.0253
     11 C           8.6504    2.2015    0.0000 C.3     1  UNL1        0.1173
     12 C           6.8671    0.1873    0.0000 C.3     1  UNL1        0.0681
     13 C           8.6273    0.2017    0.0000 C.3     1  UNL1       -0.0439
     14 C           9.5106    1.6915    0.0000 C.3     1  UNL1        0.0280
     15 C           9.4991    0.6916    0.0000 C.3     1  UNL1       -0.0420
     16 C           6.8910    2.2565    0.0000 C.2     1  UNL1       -0.0693
     17 C           5.9670    0.7116    0.0000 C.3     1  UNL1       -0.0223
     18 C           7.7556   -0.2883    0.0000 C.3     1  UNL1       -0.0565
     19 C           5.9790    1.7532    0.0000 C.3     1  UNL1       -0.0292
     20 C          10.2553    2.3501    0.0000 C.2     1  UNL1        0.0361
     21 C           9.8607    3.2625    0.0000 C.2     1  UNL1        0.3353
     22 C           6.0010   -1.3127    0.0000 C.3     1  UNL1        0.1882
     23 C           6.9141    3.2563    0.0000 C.2     1  UNL1       -0.0990
     24 C           6.0010   -2.3126    0.0000 C.3     1  UNL1        0.1341
     25 C          11.2314    2.1325    0.0000 C.2     1  UNL1       -0.0883
     26 C           5.1350   -2.8126    0.0000 C.3     1  UNL1        0.1141
     27 C           4.2690   -1.3127    0.0000 C.3     1  UNL1        0.1130
     28 C           4.2690   -2.3126    0.0000 C.3     1  UNL1        0.1119
     29 C           3.4030   -0.8127    0.0000 C.3     1  UNL1        0.0730
     30 H           7.7951    2.5614    0.0000 H       1  UNL1        0.0388
     31 H           7.9693    2.7099    0.0000 H       1  UNL1        0.0746
     32 H           6.3295   -0.1216    0.0000 H       1  UNL1        0.0603
     33 H           8.2233   -0.2687    0.0000 H       1  UNL1        0.0272
     34 H           9.0203   -0.2779    0.0000 H       1  UNL1        0.0272
     35 H          10.2836    1.3379    0.0000 H       1  UNL1        0.0387
     36 H           9.7044    0.1066    0.0000 H       1  UNL1        0.0272
     37 H          10.1108    0.7922    0.0000 H       1  UNL1        0.0272
     38 H           5.3574    0.8248    0.0000 H       1  UNL1        0.0293
     39 H           5.7512    0.1304    0.0000 H       1  UNL1        0.0293
     40 H           7.1356   -0.2811    0.0000 H       1  UNL1        0.0236
     41 H           7.7484   -0.9083    0.0000 H       1  UNL1        0.0236
     42 H           8.3755   -0.2955    0.0000 H       1  UNL1        0.0236
     43 H           5.7768    2.3393    0.0000 H       1  UNL1        0.0311
     44 H           5.3670    1.6542    0.0000 H       1  UNL1        0.0311
     45 H           6.5380   -1.6226    0.0000 H       1  UNL1        0.0937
     46 H           7.4581    3.5538    0.0000 H       1  UNL1        0.0535
     47 H           6.3845    3.5786    0.0000 H       1  UNL1        0.0535
     48 H           6.0010   -2.9327    0.0000 H       1  UNL1        0.0671
     49 H          11.4171    1.5410    0.0000 H       1  UNL1        0.0540
     50 H          11.6507    2.5892    0.0000 H       1  UNL1        0.0540
     51 H           4.5981   -3.1226    0.0000 H       1  UNL1        0.0648
     52 H           4.2690   -0.6927    0.0000 H       1  UNL1        0.0647
     53 H           3.7320   -2.0026    0.0000 H       1  UNL1        0.0647
     54 H           3.8015   -0.3377    0.0000 H       1  UNL1        0.0584
     55 H           3.0044   -0.3377    0.0000 H       1  UNL1        0.0584
     56 H           6.8671   -3.4326    0.0000 H       1  UNL1        0.2101
     57 H           4.5981   -4.1226    0.0000 H       1  UNL1        0.2100
     58 H           3.4030   -3.4326    0.0000 H       1  UNL1        0.2100
     59 H           2.0000   -1.0026    0.0000 H       1  UNL1        0.2095
@<TRIPOS>BOND
     1     1    11    1
     2     1    21    1
     3    12     2    1
     4    22     2    1
     5     3    22    1
     6     3    27    1
     7     4    21    2
     8    24     5    1
     9     5    56    1
    10    26     6    1
    11     6    57    1
    12    28     7    1
    13     7    58    1
    14     8    29    1
    15     8    59    1
    16     9    10    1
    17     9    12    1
    18     9    13    1
    19     9    18    1
    20    10    11    1
    21    10    16    1
    22    10    30    1
    23    11    14    1
    24    11    31    1
    25    12    17    1
    26    12    32    1
    27    13    15    1
    28    13    33    1
    29    13    34    1
    30    14    15    1
    31    14    20    1
    32    14    35    1
    33    15    36    1
    34    15    37    1
    35    16    19    1
    36    16    23    2
    37    17    19    1
    38    17    38    1
    39    17    39    1
    40    18    40    1
    41    18    41    1
    42    18    42    1
    43    19    43    1
    44    19    44    1
    45    20    21    1
    46    20    25    2
    47    22    24    1
    48    22    45    1
    49    23    46    1
    50    23    47    1
    51    24    26    1
    52    24    48    1
    53    25    49    1
    54    25    50    1
    55    26    28    1
    56    26    51    1
    57    27    28    1
    58    27    29    1
    59    27    52    1
    60    28    53    1
    61    29    54    1
    62    29    55    1
