@<TRIPOS>MOLECULE
IMPHY007690
 68 71 0 0 0
SMALL
GASTEIGER

@<TRIPOS>ATOM
      1 O           7.1962    1.7500    0.0000 O.3     1  UNL1       -0.4593
      2 O           4.5981    1.2500    0.0000 O.2     1  UNL1       -0.2738
      3 O           2.0000   -1.2500    0.0000 O.2     1  UNL1       -0.2702
      4 O           6.3301    3.2500    0.0000 O.2     1  UNL1       -0.2450
      5 N           5.4641   -0.2500    0.0000 N.am    1  UNL1       -0.3074
      6 N           3.7320   -1.2500    0.0000 N.am    1  UNL1       -0.2997
      7 C           6.3301    0.2500    0.0000 C.3     1  UNL1        0.0612
      8 C           3.7320   -0.2500    0.0000 C.3     1  UNL1        0.1036
      9 C           7.1962   -0.2500    0.0000 C.3     1  UNL1       -0.0060
     10 C           2.8660    0.2500    0.0000 C.3     1  UNL1       -0.0006
     11 C           6.3301    1.2500    0.0000 C.3     1  UNL1        0.1114
     12 C           4.5981    0.2500    0.0000 C.2     1  UNL1        0.2340
     13 C           8.0622    0.2500    0.0000 C.ar    1  UNL1       -0.0455
     14 C           2.8660    1.2500    0.0000 C.ar    1  UNL1       -0.0451
     15 C           8.9282   -0.2500    0.0000 C.ar    1  UNL1       -0.0585
     16 C           8.0622    1.2500    0.0000 C.ar    1  UNL1       -0.0585
     17 C           2.8660   -1.7500    0.0000 C.2     1  UNL1        0.2447
     18 C           3.7320    1.7500    0.0000 C.ar    1  UNL1       -0.0585
     19 C           2.0000    1.7500    0.0000 C.ar    1  UNL1       -0.0585
     20 C           9.7942    0.2500    0.0000 C.ar    1  UNL1       -0.0615
     21 C           8.9282    1.7500    0.0000 C.ar    1  UNL1       -0.0615
     22 C           2.8660   -2.7500    0.0000 C.ar    1  UNL1        0.0367
     23 C           9.7942    1.2500    0.0000 C.ar    1  UNL1       -0.0617
     24 C           3.7320    2.7500    0.0000 C.ar    1  UNL1       -0.0615
     25 C           2.0000    2.7500    0.0000 C.ar    1  UNL1       -0.0615
     26 C           7.1962    2.7500    0.0000 C.2     1  UNL1        0.3392
     27 C           2.8660    3.2500    0.0000 C.ar    1  UNL1       -0.0617
     28 C           8.0622    3.2500    0.0000 C.ar    1  UNL1        0.0590
     29 C           2.0000   -3.2500    0.0000 C.ar    1  UNL1       -0.0496
     30 C           3.7320   -3.2500    0.0000 C.ar    1  UNL1       -0.0496
     31 C           2.0000   -4.2500    0.0000 C.ar    1  UNL1       -0.0610
     32 C           3.7320   -4.2500    0.0000 C.ar    1  UNL1       -0.0610
     33 C           8.9282    2.7500    0.0000 C.ar    1  UNL1       -0.0478
     34 C           8.0622    4.2500    0.0000 C.ar    1  UNL1       -0.0478
     35 C           2.8660   -4.7500    0.0000 C.ar    1  UNL1       -0.0617
     36 C           9.7942    3.2500    0.0000 C.ar    1  UNL1       -0.0610
     37 C           8.9282    4.7500    0.0000 C.ar    1  UNL1       -0.0610
     38 C           9.7942    4.2500    0.0000 C.ar    1  UNL1       -0.0617
     39 H           5.7932    0.5600    0.0000 H       1  UNL1        0.0535
     40 H           4.2690   -0.5600    0.0000 H       1  UNL1        0.0598
     41 H           6.7976   -0.7249    0.0000 H       1  UNL1        0.0332
     42 H           7.5947   -0.7249    0.0000 H       1  UNL1        0.0332
     43 H           5.4641   -0.8700    0.0000 H       1  UNL1        0.1492
     44 H           2.2554    0.3577    0.0000 H       1  UNL1        0.0336
     45 H           2.6540   -0.3326    0.0000 H       1  UNL1        0.0336
     46 H           6.1181    1.8326    0.0000 H       1  UNL1        0.0716
     47 H           5.7196    1.1423    0.0000 H       1  UNL1        0.0716
     48 H           4.2690   -1.5600    0.0000 H       1  UNL1        0.1498
     49 H           8.9282   -0.8700    0.0000 H       1  UNL1        0.0620
     50 H           7.5252    1.5600    0.0000 H       1  UNL1        0.0620
     51 H           4.2690    1.4400    0.0000 H       1  UNL1        0.0620
     52 H           1.4631    1.4400    0.0000 H       1  UNL1        0.0620
     53 H          10.3312   -0.0600    0.0000 H       1  UNL1        0.0618
     54 H           8.9282    2.3700    0.0000 H       1  UNL1        0.0618
     55 H          10.3312    1.5600    0.0000 H       1  UNL1        0.0618
     56 H           4.2690    3.0600    0.0000 H       1  UNL1        0.0618
     57 H           1.4631    3.0600    0.0000 H       1  UNL1        0.0618
     58 H           2.8660    3.8700    0.0000 H       1  UNL1        0.0618
     59 H           1.4631   -2.9400    0.0000 H       1  UNL1        0.0625
     60 H           4.2690   -2.9400    0.0000 H       1  UNL1        0.0625
     61 H           1.4631   -4.5600    0.0000 H       1  UNL1        0.0618
     62 H           4.2690   -4.5600    0.0000 H       1  UNL1        0.0618
     63 H           8.9282    2.1300    0.0000 H       1  UNL1        0.0626
     64 H           7.5252    4.5600    0.0000 H       1  UNL1        0.0626
     65 H           2.8660   -5.3700    0.0000 H       1  UNL1        0.0618
     66 H          10.3312    2.9400    0.0000 H       1  UNL1        0.0618
     67 H           8.9282    5.3700    0.0000 H       1  UNL1        0.0618
     68 H          10.3312    4.5600    0.0000 H       1  UNL1        0.0618
@<TRIPOS>BOND
     1     1    11    1
     2     1    26    1
     3     2    12    2
     4     3    17    2
     5     4    26    2
     6     7     5    1
     7     5    12   am
     8     5    43    1
     9     8     6    1
    10     6    17   am
    11     6    48    1
    12     7     9    1
    13     7    11    1
    14     7    39    1
    15     8    10    1
    16     8    12    1
    17     8    40    1
    18     9    13    1
    19     9    41    1
    20     9    42    1
    21    10    14    1
    22    10    44    1
    23    10    45    1
    24    11    46    1
    25    11    47    1
    26    13    15   ar
    27    13    16   ar
    28    14    18   ar
    29    14    19   ar
    30    15    20   ar
    31    15    49    1
    32    16    21   ar
    33    16    50    1
    34    17    22    1
    35    18    24   ar
    36    18    51    1
    37    19    25   ar
    38    19    52    1
    39    20    23   ar
    40    20    53    1
    41    21    23   ar
    42    21    54    1
    43    22    29   ar
    44    22    30   ar
    45    23    55    1
    46    24    27   ar
    47    24    56    1
    48    25    27   ar
    49    25    57    1
    50    26    28    1
    51    27    58    1
    52    28    33   ar
    53    28    34   ar
    54    29    31   ar
    55    29    59    1
    56    30    32   ar
    57    30    60    1
    58    31    35   ar
    59    31    61    1
    60    32    35   ar
    61    32    62    1
    62    33    36   ar
    63    33    63    1
    64    34    37   ar
    65    34    64    1
    66    35    65    1
    67    36    38   ar
    68    36    66    1
    69    37    38   ar
    70    37    67    1
    71    38    68    1
