@<TRIPOS>MOLECULE
IMPHY010449
 51 53 0 0 0
SMALL
GASTEIGER

@<TRIPOS>ATOM
      1 O           5.5220    0.9288    0.0000 O.3     1  UNL1       -0.4591
      2 O           2.9239    0.4288    0.0000 O.3     1  UNL1       -0.4581
      3 O           4.8668   -2.2501    0.0000 O.3     1  UNL1       -0.4542
      4 O           3.0035   -2.0570    0.0000 O.3     1  UNL1       -0.3746
      5 O           6.9662   -0.1588    0.0000 O.2     1  UNL1       -0.2504
      6 O           2.0000   -0.9539    0.0000 O.2     1  UNL1       -0.2474
      7 O           6.5500   -1.8418    0.0000 O.2     1  UNL1       -0.2511
      8 N           4.8651    3.4006    0.0000 N.3     1  UNL1       -0.2886
      9 C           4.6559    2.4288    0.0000 C.3     1  UNL1        0.0723
     10 C           5.5220    1.9288    0.0000 C.3     1  UNL1        0.1235
     11 C           6.2590    2.5959    0.0000 C.3     1  UNL1       -0.0010
     12 C           5.8539    3.5037    0.0000 C.3     1  UNL1        0.0033
     13 C           3.7899    1.9288    0.0000 C.2     1  UNL1       -0.0148
     14 C           5.3695    2.5277    0.0000 C.3     1  UNL1        0.0182
     15 C           4.6310   -1.2783    0.0000 C.3     1  UNL1        0.1618
     16 C           4.7748    1.7137    0.0000 C.2     1  UNL1       -0.0660
     17 C           5.1310   -0.4123    0.0000 C.3     1  UNL1        0.0963
     18 C           3.6310   -1.2783    0.0000 C.3     1  UNL1        0.1997
     19 C           3.7899    0.9288    0.0000 C.3     1  UNL1        0.1153
     20 C           5.9970    0.0877    0.0000 C.2     1  UNL1        0.3142
     21 C           5.6028   -1.5141    0.0000 C.3     1  UNL1       -0.0207
     22 C           2.9239   -0.5712    0.0000 C.2     1  UNL1        0.3432
     23 C           4.4239    0.2948    0.0000 C.3     1  UNL1       -0.0484
     24 C           3.8707   -2.2492    0.0000 C.3     1  UNL1       -0.0216
     25 C           5.8262   -2.5319    0.0000 C.2     1  UNL1        0.3046
     26 C           6.0620   -3.5037    0.0000 C.3     1  UNL1        0.0333
     27 H           4.2309    3.1649    0.0000 H       1  UNL1        0.0547
     28 H           6.2989    1.5841    0.0000 H       1  UNL1        0.0753
     29 H           6.6244    2.0950    0.0000 H       1  UNL1        0.0314
     30 H           6.7955    2.9066    0.0000 H       1  UNL1        0.0314
     31 H           6.4435    3.6954    0.0000 H       1  UNL1        0.0428
     32 H           5.7251    4.1102    0.0000 H       1  UNL1        0.0428
     33 H           5.8148    2.0963    0.0000 H       1  UNL1        0.0470
     34 H           5.8583    2.9091    0.0000 H       1  UNL1        0.0470
     35 H           4.9946    1.1339    0.0000 H       1  UNL1        0.0586
     36 H           4.5163   -0.4932    0.0000 H       1  UNL1        0.0451
     37 H           4.0020    0.3462    0.0000 H       1  UNL1        0.0746
     38 H           4.4005    1.0365    0.0000 H       1  UNL1        0.0746
     39 H           5.4566   -2.1166    0.0000 H       1  UNL1        0.0269
     40 H           6.2053   -1.6602    0.0000 H       1  UNL1        0.0269
     41 H           5.7490   -0.9115    0.0000 H       1  UNL1        0.0269
     42 H           4.8623    0.7332    0.0000 H       1  UNL1        0.0239
     43 H           3.9855    0.7332    0.0000 H       1  UNL1        0.0239
     44 H           3.9855   -0.1436    0.0000 H       1  UNL1        0.0239
     45 H           3.2688   -2.3978    0.0000 H       1  UNL1        0.0264
     46 H           4.0193   -2.8511    0.0000 H       1  UNL1        0.0264
     47 H           4.4726   -2.1006    0.0000 H       1  UNL1        0.0264
     48 H           2.3909   -1.9614    0.0000 H       1  UNL1        0.2110
     49 H           5.4595   -3.6498    0.0000 H       1  UNL1        0.0342
     50 H           6.2082   -4.1062    0.0000 H       1  UNL1        0.0342
     51 H           6.6645   -3.3575    0.0000 H       1  UNL1        0.0342
@<TRIPOS>BOND
     1     1    10    1
     2     1    20    1
     3     2    19    1
     4     2    22    1
     5    15     3    1
     6     3    25    1
     7    18     4    1
     8     4    48    1
     9     5    20    2
    10     6    22    2
    11     7    25    2
    12     8     9    1
    13     8    12    1
    14     8    14    1
    15     9    10    1
    16     9    13    1
    17     9    27    1
    18    10    11    1
    19    10    28    1
    20    11    12    1
    21    11    29    1
    22    11    30    1
    23    12    31    1
    24    12    32    1
    25    13    16    2
    26    13    19    1
    27    14    16    1
    28    14    33    1
    29    14    34    1
    30    15    17    1
    31    15    18    1
    32    15    21    1
    33    16    35    1
    34    17    20    1
    35    17    23    1
    36    17    36    1
    37    18    22    1
    38    18    24    1
    39    19    37    1
    40    19    38    1
    41    21    39    1
    42    21    40    1
    43    21    41    1
    44    23    42    1
    45    23    43    1
    46    23    44    1
    47    24    45    1
    48    24    46    1
    49    24    47    1
    50    25    26    1
    51    26    49    1
    52    26    50    1
    53    26    51    1
