@<TRIPOS>MOLECULE
IMPHY000737
 66 69 0 0 0
SMALL
GASTEIGER

@<TRIPOS>ATOM
      1 O           3.7320   -3.5920    0.0000 O.3     1  UNL1       -0.4610
      2 O           8.0727   -0.0474    0.0000 O.3     1  UNL1       -0.4912
      3 O           2.8660   -2.0920    0.0000 O.2     1  UNL1       -0.2512
      4 O           9.8138    2.9797    0.0000 O.2     1  UNL1       -0.4220
      5 O          10.6720    4.5280    0.0000 O.2     1  UNL1       -0.2452
      6 C           6.3301   -3.0920    0.0000 C.3     1  UNL1       -0.0172
      7 C           6.3301   -2.0920    0.0000 C.3     1  UNL1       -0.0164
      8 C           5.4641   -3.5920    0.0000 C.3     1  UNL1        0.0081
      9 C           7.2241   -1.5574    0.0000 C.3     1  UNL1        0.0199
     10 C           5.4641   -1.5920    0.0000 C.3     1  UNL1       -0.0431
     11 C           7.2241   -3.6267    0.0000 C.3     1  UNL1       -0.0428
     12 C           4.5981   -3.0920    0.0000 C.3     1  UNL1        0.1087
     13 C           4.5981   -2.0920    0.0000 C.3     1  UNL1       -0.0146
     14 C           6.5039   -4.0768    0.0000 C.3     1  UNL1       -0.0584
     15 C           6.3301   -1.0920    0.0000 C.3     1  UNL1       -0.0584
     16 C           8.1301   -3.1128    0.0000 C.3     1  UNL1       -0.0311
     17 C           8.1301   -2.0712    0.0000 C.2     1  UNL1       -0.0698
     18 C           4.9641   -4.4580    0.0000 C.3     1  UNL1       -0.0559
     19 C           5.8061   -4.5317    0.0000 C.3     1  UNL1       -0.0559
     20 C           7.2125   -0.5574    0.0000 C.3     1  UNL1        0.0965
     21 C           8.9942   -1.5679    0.0000 C.2     1  UNL1       -0.0991
     22 C           2.8660   -3.0920    0.0000 C.2     1  UNL1        0.3042
     23 C           8.0611    0.9525    0.0000 C.ar    1  UNL1        0.1241
     24 C           2.0000   -3.5920    0.0000 C.3     1  UNL1        0.0332
     25 C           8.9213    1.4625    0.0000 C.ar    1  UNL1        0.0231
     26 C           7.1894    1.4424    0.0000 C.ar    1  UNL1       -0.0192
     27 C           8.9098    2.4624    0.0000 C.ar    1  UNL1        0.1425
     28 C           7.1778    2.4424    0.0000 C.ar    1  UNL1       -0.0476
     29 C           8.0380    2.9524    0.0000 C.ar    1  UNL1        0.0178
     30 C           8.0099    3.9936    0.0000 C.ar    1  UNL1       -0.0443
     31 C           9.8098    4.0214    0.0000 C.ar    1  UNL1        0.3372
     32 C           8.9018    4.5317    0.0000 C.ar    1  UNL1        0.0236
     33 H           7.7580   -1.2422    0.0000 H       1  UNL1        0.0384
     34 H           5.8626   -1.1171    0.0000 H       1  UNL1        0.0272
     35 H           5.0656   -1.1171    0.0000 H       1  UNL1        0.0272
     36 H           6.8195   -4.0965    0.0000 H       1  UNL1        0.0274
     37 H           7.6177   -4.1057    0.0000 H       1  UNL1        0.0274
     38 H           4.5981   -3.7120    0.0000 H       1  UNL1        0.0739
     39 H           4.3860   -1.5094    0.0000 H       1  UNL1        0.0301
     40 H           3.9875   -2.1997    0.0000 H       1  UNL1        0.0301
     41 H           5.8933   -4.1845    0.0000 H       1  UNL1        0.0235
     42 H           6.6116   -4.6874    0.0000 H       1  UNL1        0.0235
     43 H           7.1144   -3.9691    0.0000 H       1  UNL1        0.0235
     44 H           6.9501   -1.0920    0.0000 H       1  UNL1        0.0235
     45 H           6.3301   -0.4720    0.0000 H       1  UNL1        0.0235
     46 H           5.7101   -1.0920    0.0000 H       1  UNL1        0.0235
     47 H           8.3392   -3.6965    0.0000 H       1  UNL1        0.0310
     48 H           8.7410   -3.0067    0.0000 H       1  UNL1        0.0310
     49 H           4.4272   -4.1480    0.0000 H       1  UNL1        0.0236
     50 H           4.6541   -4.9950    0.0000 H       1  UNL1        0.0236
     51 H           5.5010   -4.7680    0.0000 H       1  UNL1        0.0236
     52 H           5.2235   -4.7438    0.0000 H       1  UNL1        0.0236
     53 H           6.0182   -5.1143    0.0000 H       1  UNL1        0.0236
     54 H           6.3887   -4.3197    0.0000 H       1  UNL1        0.0236
     55 H           6.9937    0.0227    0.0000 H       1  UNL1        0.0703
     56 H           6.6032   -0.6721    0.0000 H       1  UNL1        0.0703
     57 H           9.5323   -1.8758    0.0000 H       1  UNL1        0.0535
     58 H           8.9918   -0.9479    0.0000 H       1  UNL1        0.0535
     59 H           1.6900   -3.0551    0.0000 H       1  UNL1        0.0342
     60 H           1.4631   -3.9020    0.0000 H       1  UNL1        0.0342
     61 H           2.3100   -4.1290    0.0000 H       1  UNL1        0.0342
     62 H           9.4618    1.1587    0.0000 H       1  UNL1        0.0691
     63 H           6.6561    1.1262    0.0000 H       1  UNL1        0.0654
     64 H           6.6373    2.7462    0.0000 H       1  UNL1        0.0626
     65 H           7.4659    4.2911    0.0000 H       1  UNL1        0.0627
     66 H           8.8922    5.1516    0.0000 H       1  UNL1        0.0689
@<TRIPOS>BOND
     1    12     1    1
     2     1    22    1
     3     2    20    1
     4     2    23    1
     5     3    22    2
     6     4    27   ar
     7     4    31   ar
     8     5    31    2
     9     6     7    1
    10     6     8    1
    11     6    11    1
    12     6    14    1
    13     7     9    1
    14     7    10    1
    15     7    15    1
    16     8    12    1
    17     8    18    1
    18     8    19    1
    19     9    17    1
    20     9    20    1
    21     9    33    1
    22    10    13    1
    23    10    34    1
    24    10    35    1
    25    11    16    1
    26    11    36    1
    27    11    37    1
    28    12    13    1
    29    12    38    1
    30    13    39    1
    31    13    40    1
    32    14    41    1
    33    14    42    1
    34    14    43    1
    35    15    44    1
    36    15    45    1
    37    15    46    1
    38    16    17    1
    39    16    47    1
    40    16    48    1
    41    17    21    2
    42    18    49    1
    43    18    50    1
    44    18    51    1
    45    19    52    1
    46    19    53    1
    47    19    54    1
    48    20    55    1
    49    20    56    1
    50    21    57    1
    51    21    58    1
    52    22    24    1
    53    23    25   ar
    54    23    26   ar
    55    24    59    1
    56    24    60    1
    57    24    61    1
    58    25    27   ar
    59    25    62    1
    60    26    28   ar
    61    26    63    1
    62    27    29   ar
    63    28    29   ar
    64    28    64    1
    65    29    30   ar
    66    30    32   ar
    67    30    65    1
    68    31    32   ar
    69    32    66    1
