@<TRIPOS>MOLECULE
IMPHY005961
 21 21 0 0 0
SMALL
GASTEIGER

@<TRIPOS>ATOM
      1 O           2.8660   -2.7500    0.0000 O.3     1  UNL1       -0.5068
      2 N           3.7320    2.7500    0.0000 N.3     1  UNL1       -0.3297
      3 C           2.8660    1.2500    0.0000 C.3     1  UNL1       -0.0153
      4 C           2.8660    0.2500    0.0000 C.ar    1  UNL1       -0.0459
      5 C           3.7320    1.7500    0.0000 C.3     1  UNL1       -0.0029
      6 C           2.0000   -0.2500    0.0000 C.ar    1  UNL1       -0.0551
      7 C           3.7320   -0.2500    0.0000 C.ar    1  UNL1       -0.0551
      8 C           2.0000   -1.2500    0.0000 C.ar    1  UNL1       -0.0199
      9 C           3.7320   -1.2500    0.0000 C.ar    1  UNL1       -0.0199
     10 C           2.8660   -1.7500    0.0000 C.ar    1  UNL1        0.1169
     11 H           2.6540    1.8326    0.0000 H       1  UNL1        0.0325
     12 H           2.2554    1.1423    0.0000 H       1  UNL1        0.0325
     13 H           3.9441    1.1674    0.0000 H       1  UNL1        0.0425
     14 H           4.3426    1.8577    0.0000 H       1  UNL1        0.0425
     15 H           1.4631    0.0600    0.0000 H       1  UNL1        0.0621
     16 H           4.2690    0.0600    0.0000 H       1  UNL1        0.0621
     17 H           1.4631   -1.5600    0.0000 H       1  UNL1        0.0654
     18 H           4.2690   -1.5600    0.0000 H       1  UNL1        0.0654
     19 H           4.2690    3.0600    0.0000 H       1  UNL1        0.1182
     20 H           3.1951    3.0600    0.0000 H       1  UNL1        0.1182
     21 H           2.3291   -3.0600    0.0000 H       1  UNL1        0.2921
@<TRIPOS>BOND
     1     1    10    1
     2     1    21    1
     3     2     5    1
     4     2    19    1
     5     2    20    1
     6     3     4    1
     7     3     5    1
     8     3    11    1
     9     3    12    1
    10     4     6   ar
    11     4     7   ar
    12     5    13    1
    13     5    14    1
    14     6     8   ar
    15     6    15    1
    16     7     9   ar
    17     7    16    1
    18     8    10   ar
    19     8    17    1
    20     9    10   ar
    21     9    18    1
