@<TRIPOS>MOLECULE
IMPHY007662
 42 46 0 0 0
SMALL
GASTEIGER

@<TRIPOS>ATOM
      1 O           4.7578   -1.9245    0.0000 O.3     1  UNL1       -0.4833
      2 O           2.2505   -0.7285    0.0000 O.3     1  UNL1       -0.3875
      3 O           7.9918   -0.1905    0.0000 O.2     1  UNL1       -0.4537
      4 O           8.2010    2.7813    0.0000 O.2     1  UNL1       -0.4214
      5 O           6.4690    2.7813    0.0000 O.2     1  UNL1       -0.2444
      6 O          11.7311    2.8054    0.0000 O.3     1  UNL1       -0.5066
      7 C           3.6842   -1.8209    0.0000 C.3     1  UNL1        0.1310
      8 C           3.2447   -0.8360    0.0000 C.3     1  UNL1        0.0983
      9 C           3.8846    0.0322    0.0000 C.3     1  UNL1        0.0057
     10 C           4.9555   -0.0961    0.0000 C.ar    1  UNL1       -0.0023
     11 C           5.3775   -1.0417    0.0000 C.ar    1  UNL1        0.1282
     12 C           2.7726   -2.2320    0.0000 C.3     1  UNL1       -0.0227
     13 C           3.5844   -2.8160    0.0000 C.3     1  UNL1       -0.0227
     14 C           6.5980    0.6142    0.0000 C.ar    1  UNL1        0.0353
     15 C           5.5699    0.7374    0.0000 C.ar    1  UNL1       -0.0434
     16 C           7.0031   -0.2936    0.0000 C.ar    1  UNL1        0.1400
     17 C           6.4082   -1.1411    0.0000 C.ar    1  UNL1        0.0233
     18 C           7.3350    1.2813    0.0000 C.ar    1  UNL1        0.1128
     19 C           8.2010    0.7813    0.0000 C.ar    1  UNL1        0.1538
     20 C           9.0670    1.2813    0.0000 C.ar    1  UNL1        0.0607
     21 C           7.3350    2.2813    0.0000 C.ar    1  UNL1        0.3488
     22 C           9.0670    2.2813    0.0000 C.ar    1  UNL1        0.1461
     23 C           9.9610    0.7466    0.0000 C.ar    1  UNL1       -0.0441
     24 C           9.9610    2.8160    0.0000 C.ar    1  UNL1        0.0230
     25 C          10.8671    1.2605    0.0000 C.ar    1  UNL1       -0.0193
     26 C          10.8671    2.3021    0.0000 C.ar    1  UNL1        0.1204
     27 H           2.8797   -1.3372    0.0000 H       1  UNL1        0.0636
     28 H           4.0626    0.6261    0.0000 H       1  UNL1        0.0341
     29 H           3.3299    0.3092    0.0000 H       1  UNL1        0.0341
     30 H           2.5178   -1.6668    0.0000 H       1  UNL1        0.0269
     31 H           2.2074   -2.4868    0.0000 H       1  UNL1        0.0269
     32 H           2.9675   -2.7540    0.0000 H       1  UNL1        0.0269
     33 H           3.5225   -3.4328    0.0000 H       1  UNL1        0.0269
     34 H           4.2013   -2.8778    0.0000 H       1  UNL1        0.0269
     35 H           3.0275   -2.7972    0.0000 H       1  UNL1        0.0269
     36 H           5.3238    1.3065    0.0000 H       1  UNL1        0.0629
     37 H           6.6674   -1.7043    0.0000 H       1  UNL1        0.0691
     38 H           2.0000   -0.1613    0.0000 H       1  UNL1        0.2100
     39 H           9.9538    0.1267    0.0000 H       1  UNL1        0.0627
     40 H           9.9538    3.4359    0.0000 H       1  UNL1        0.0691
     41 H          11.4028    0.9484    0.0000 H       1  UNL1        0.0654
     42 H          12.2693    2.4975    0.0000 H       1  UNL1        0.2921
@<TRIPOS>BOND
     1     1     7    1
     2     1    11    1
     3     2     8    1
     4     2    38    1
     5     3    16   ar
     6     3    19   ar
     7     4    21   ar
     8     4    22   ar
     9     5    21    2
    10     6    26    1
    11     6    42    1
    12     7     8    1
    13     7    12    1
    14     7    13    1
    15     8     9    1
    16     8    27    1
    17     9    10    1
    18     9    28    1
    19     9    29    1
    20    10    11   ar
    21    10    15   ar
    22    11    17   ar
    23    12    30    1
    24    12    31    1
    25    12    35    1
    26    13    32    1
    27    13    33    1
    28    13    34    1
    29    14    15   ar
    30    14    16   ar
    31    14    18   ar
    32    15    36    1
    33    16    17   ar
    34    17    37    1
    35    18    19   ar
    36    18    21   ar
    37    19    20   ar
    38    20    22   ar
    39    20    23   ar
    40    22    24   ar
    41    23    25   ar
    42    23    39    1
    43    24    26   ar
    44    24    40    1
    45    25    26   ar
    46    25    41    1
