@<TRIPOS>MOLECULE
IMPHY000149
 43 44 0 0 0
SMALL
GASTEIGER

@<TRIPOS>ATOM
      1 O           3.4030    2.4050    0.0000 O.3     1  UNL1       -0.5060
      2 O           6.8671    2.4050    0.0000 O.3     1  UNL1       -0.5060
      3 O           2.5369   -4.0950    0.0000 O.3     1  UNL1       -0.5033
      4 O           4.2690   -5.0950    0.0000 O.3     1  UNL1       -0.5033
      5 C           6.0010    4.9050    0.0000 C.3     1  UNL1       -0.0283
      6 C           5.1350    2.4050    0.0000 C.ar    1  UNL1        0.0575
      7 C           6.0010    3.9050    0.0000 C.2     1  UNL1       -0.0806
      8 C           5.1350    3.4050    0.0000 C.2     1  UNL1       -0.0513
      9 C           6.8671    5.4050    0.0000 C.3     1  UNL1       -0.0592
     10 C           5.1350    5.4050    0.0000 C.3     1  UNL1       -0.0592
     11 C           5.1350    0.4050    0.0000 C.ar    1  UNL1       -0.0181
     12 C           4.2690    1.9050    0.0000 C.ar    1  UNL1        0.1280
     13 C           6.0010    1.9050    0.0000 C.ar    1  UNL1        0.1280
     14 C           4.2690    0.9050    0.0000 C.ar    1  UNL1       -0.0122
     15 C           6.0010    0.9050    0.0000 C.ar    1  UNL1       -0.0122
     16 C           5.1350   -0.5950    0.0000 C.2     1  UNL1       -0.0538
     17 C           4.2690   -2.0950    0.0000 C.ar    1  UNL1       -0.0213
     18 C           4.2690   -1.0950    0.0000 C.2     1  UNL1       -0.0539
     19 C           3.4030   -2.5950    0.0000 C.ar    1  UNL1       -0.0094
     20 C           5.1350   -2.5950    0.0000 C.ar    1  UNL1       -0.0509
     21 C           3.4030   -3.5950    0.0000 C.ar    1  UNL1        0.1588
     22 C           5.1350   -3.5950    0.0000 C.ar    1  UNL1       -0.0160
     23 C           4.2690   -4.0950    0.0000 C.ar    1  UNL1        0.1582
     24 H           6.5380    4.5950    0.0000 H       1  UNL1        0.0338
     25 H           6.5380    3.5950    0.0000 H       1  UNL1        0.0575
     26 H           4.5981    3.7150    0.0000 H       1  UNL1        0.0623
     27 H           7.1771    4.8681    0.0000 H       1  UNL1        0.0235
     28 H           7.4040    5.7150    0.0000 H       1  UNL1        0.0235
     29 H           6.5571    5.9419    0.0000 H       1  UNL1        0.0235
     30 H           5.4450    5.9419    0.0000 H       1  UNL1        0.0235
     31 H           4.5981    5.7150    0.0000 H       1  UNL1        0.0235
     32 H           4.8250    4.8681    0.0000 H       1  UNL1        0.0235
     33 H           3.7320    0.5950    0.0000 H       1  UNL1        0.0660
     34 H           6.5380    0.5950    0.0000 H       1  UNL1        0.0660
     35 H           5.6720   -0.9050    0.0000 H       1  UNL1        0.0624
     36 H           3.7320   -0.7850    0.0000 H       1  UNL1        0.0624
     37 H           2.8660   -2.2850    0.0000 H       1  UNL1        0.0661
     38 H           5.6720   -2.2850    0.0000 H       1  UNL1        0.0625
     39 H           5.6720   -3.9050    0.0000 H       1  UNL1        0.0655
     40 H           2.8660    2.0950    0.0000 H       1  UNL1        0.2922
     41 H           7.4040    2.0950    0.0000 H       1  UNL1        0.2922
     42 H           2.0000   -3.7850    0.0000 H       1  UNL1        0.2923
     43 H           4.8059   -5.4050    0.0000 H       1  UNL1        0.2923
@<TRIPOS>BOND
     1     1    12    1
     2     1    40    1
     3     2    13    1
     4     2    41    1
     5     3    21    1
     6     3    42    1
     7     4    23    1
     8     4    43    1
     9     5     7    1
    10     5     9    1
    11     5    10    1
    12     5    24    1
    13     6     8    1
    14     6    12   ar
    15     6    13   ar
    16     7     8    2
    17     7    25    1
    18     8    26    1
    19     9    27    1
    20     9    28    1
    21     9    29    1
    22    10    30    1
    23    10    31    1
    24    10    32    1
    25    11    14   ar
    26    11    15   ar
    27    11    16    1
    28    12    14   ar
    29    13    15   ar
    30    14    33    1
    31    15    34    1
    32    16    18    2
    33    16    35    1
    34    17    18    1
    35    17    19   ar
    36    17    20   ar
    37    18    36    1
    38    19    21   ar
    39    19    37    1
    40    20    22   ar
    41    20    38    1
    42    21    23   ar
    43    22    23   ar
    44    22    39    1
