@<TRIPOS>MOLECULE
IMPHY016040
 28 29 0 0 0
SMALL
GASTEIGER

@<TRIPOS>ATOM
      1 O           5.2619   -1.2196    0.0000 O.3     1  UNL1       -0.4224
      2 O           4.9889   -2.9748    0.0000 O.2     1  UNL1       -0.2445
      3 C           3.7320   -0.7196    0.0000 C.2     1  UNL1        0.0089
      4 C           2.8660   -0.2196    0.0000 C.3     1  UNL1       -0.0200
      5 C           3.7320   -1.7196    0.0000 C.2     1  UNL1        0.0658
      6 C           2.0000   -0.7196    0.0000 C.3     1  UNL1       -0.0303
      7 C           4.6783   -0.4148    0.0000 C.2     1  UNL1        0.1320
      8 C           2.8660   -2.2196    0.0000 C.2     1  UNL1       -0.0513
      9 C           2.0000   -1.7196    0.0000 C.2     1  UNL1       -0.0829
     10 C           4.9889    0.5357    0.0000 C.2     1  UNL1       -0.0412
     11 C           4.3211    1.2800    0.0000 C.3     1  UNL1       -0.0313
     12 C           4.6783   -2.0243    0.0000 C.2     1  UNL1        0.3448
     13 C           4.6318    2.2305    0.0000 C.3     1  UNL1       -0.0523
     14 C           3.9639    2.9748    0.0000 C.3     1  UNL1       -0.0650
     15 H           3.2646    0.2554    0.0000 H       1  UNL1        0.0317
     16 H           2.4675    0.2554    0.0000 H       1  UNL1        0.0317
     17 H           1.7880   -0.1370    0.0000 H       1  UNL1        0.0311
     18 H           1.3894   -0.8272    0.0000 H       1  UNL1        0.0311
     19 H           2.8660   -2.8396    0.0000 H       1  UNL1        0.0623
     20 H           1.4631   -2.0296    0.0000 H       1  UNL1        0.0572
     21 H           5.5956    0.6635    0.0000 H       1  UNL1        0.0608
     22 H           3.7742    1.5720    0.0000 H       1  UNL1        0.0308
     23 H           3.9385    0.7921    0.0000 H       1  UNL1        0.0308
     24 H           5.1787    1.9385    0.0000 H       1  UNL1        0.0266
     25 H           5.0143    2.7184    0.0000 H       1  UNL1        0.0266
     26 H           4.4254    3.3889    0.0000 H       1  UNL1        0.0230
     27 H           3.5498    3.4363    0.0000 H       1  UNL1        0.0230
     28 H           3.5024    2.5608    0.0000 H       1  UNL1        0.0230
@<TRIPOS>BOND
     1     1     7    1
     2     1    12    1
     3     2    12    2
     4     3     4    1
     5     3     5    2
     6     3     7    1
     7     4     6    1
     8     4    15    1
     9     4    16    1
    10     5     8    1
    11     5    12    1
    12     6     9    1
    13     6    17    1
    14     6    18    1
    15     7    10    2
    16     8     9    2
    17     8    19    1
    18     9    20    1
    19    10    11    1
    20    10    21    1
    21    11    13    1
    22    11    22    1
    23    11    23    1
    24    13    14    1
    25    13    24    1
    26    13    25    1
    27    14    26    1
    28    14    27    1
    29    14    28    1
