@<TRIPOS>MOLECULE
IMPHY013188
 64 70 0 0 0
SMALL
GASTEIGER

@<TRIPOS>ATOM
      1 O           5.4275   -1.7756    0.0000 O.3     1  UNL1       -0.3511
      2 O           8.1221   -2.3172    0.0000 O.3     1  UNL1       -0.4539
      3 O           3.3389    1.8951    0.0000 O.3     1  UNL1       -0.3647
      4 O           8.0701    0.7312    0.0000 O.3     1  UNL1       -0.3910
      5 O           6.1435    2.0702    0.0000 O.3     1  UNL1       -0.4636
      6 O           4.5896   -2.3034    0.0000 O.2     1  UNL1       -0.2881
      7 O           2.8079   -1.2929    0.0000 O.2     1  UNL1       -0.5033
      8 O           7.2161   -3.8380    0.0000 O.2     1  UNL1       -0.2478
      9 O          10.5529   -0.4109    0.0000 O.2     1  UNL1       -0.4706
     10 O           6.0560    3.8380    0.0000 O.2     1  UNL1       -0.2508
     11 C           6.3380   -1.2688    0.0000 C.3     1  UNL1        0.1311
     12 C           5.4720   -0.7688    0.0000 C.3     1  UNL1        0.0703
     13 C           7.2040   -0.7688    0.0000 C.3     1  UNL1        0.0680
     14 C           5.4720    0.2312    0.0000 C.3     1  UNL1       -0.0083
     15 C           6.3220   -2.3103    0.0000 C.3     1  UNL1        0.1862
     16 C           4.5780    0.7659    0.0000 C.3     1  UNL1        0.0628
     17 C           7.2040    0.2312    0.0000 C.3     1  UNL1        0.0674
     18 C           6.3380    0.7312    0.0000 C.3     1  UNL1       -0.0213
     19 C           8.1140   -1.2756    0.0000 C.3     1  UNL1        0.1415
     20 C           3.6720    0.2520    0.0000 C.2     1  UNL1        0.0183
     21 C           4.5780   -1.3034    0.0000 C.2     1  UNL1        0.2061
     22 C           4.3680    1.7798    0.0000 C.3     1  UNL1        0.0827
     23 C           6.1221   -1.8945    0.0000 C.3     1  UNL1       -0.0493
     24 C           8.0701   -0.2688    0.0000 C.3     1  UNL1       -0.0507
     25 C           7.2200   -2.8380    0.0000 C.2     1  UNL1        0.3398
     26 C           5.6374    0.9684    0.0000 C.3     1  UNL1        0.1046
     27 C           2.9097    0.9528    0.0000 C.3     1  UNL1        0.0897
     28 C           3.6720   -0.7896    0.0000 C.2     1  UNL1        0.1625
     29 C           4.6907    2.8090    0.0000 C.3     1  UNL1        0.0721
     30 C           8.9742   -0.7656    0.0000 C.ar    1  UNL1        0.0311
     31 C           2.0000    1.3681    0.0000 C.3     1  UNL1       -0.0320
     32 C           2.2336    0.2160    0.0000 C.3     1  UNL1       -0.0320
     33 C           5.5855    2.9557    0.0000 C.2     1  UNL1        0.3096
     34 C           9.0672    0.2300    0.0000 C.ar    1  UNL1       -0.0172
     35 C           9.8924   -1.1618    0.0000 C.ar    1  UNL1        0.0984
     36 C          10.0429    0.4492    0.0000 C.ar    1  UNL1        0.0921
     37 H           6.2081   -0.1938    0.0000 H       1  UNL1        0.0322
     38 H           5.8886   -3.0415    0.0000 H       1  UNL1        0.0743
     39 H           7.2040    0.8512    0.0000 H       1  UNL1        0.0601
     40 H           6.7366    1.2062    0.0000 H       1  UNL1        0.0293
     41 H           5.9395    1.2062    0.0000 H       1  UNL1        0.0293
     42 H           8.6539   -1.5804    0.0000 H       1  UNL1        0.0794
     43 H           3.9038    2.4919    0.0000 H       1  UNL1        0.0612
     44 H           5.5852   -2.2046    0.0000 H       1  UNL1        0.0240
     45 H           6.4322   -2.4314    0.0000 H       1  UNL1        0.0240
     46 H           6.6590   -1.5845    0.0000 H       1  UNL1        0.0240
     47 H           8.3801   -0.8057    0.0000 H       1  UNL1        0.0238
     48 H           8.6070    0.0412    0.0000 H       1  UNL1        0.0238
     49 H           7.7601    0.2682    0.0000 H       1  UNL1        0.0238
     50 H           5.6265    0.3485    0.0000 H       1  UNL1        0.0707
     51 H           6.2419    0.8307    0.0000 H       1  UNL1        0.0707
     52 H           4.6863    3.4290    0.0000 H       1  UNL1        0.0403
     53 H           4.0775    2.9006    0.0000 H       1  UNL1        0.0403
     54 H           8.0701    1.3512    0.0000 H       1  UNL1        0.2098
     55 H           2.2575    1.9321    0.0000 H       1  UNL1        0.0260
     56 H           1.4360    1.6256    0.0000 H       1  UNL1        0.0260
     57 H           1.7425    0.8041    0.0000 H       1  UNL1        0.0260
     58 H           1.7767    0.6352    0.0000 H       1  UNL1        0.0260
     59 H           1.8144   -0.2408    0.0000 H       1  UNL1        0.0260
     60 H           2.6904   -0.2032    0.0000 H       1  UNL1        0.0260
     61 H           2.8103   -1.9129    0.0000 H       1  UNL1        0.2923
     62 H           8.6017    0.6395    0.0000 H       1  UNL1        0.0653
     63 H          10.0283   -1.7667    0.0000 H       1  UNL1        0.1033
     64 H          10.2885    1.0185    0.0000 H       1  UNL1        0.1029
@<TRIPOS>BOND
     1    11     1    1
     2     1    15    1
     3     2    19    1
     4     2    25    1
     5     3    22    1
     6     3    27    1
     7    17     4    1
     8     4    54    1
     9     5    26    1
    10     5    33    1
    11     6    21    2
    12     7    28    1
    13     7    61    1
    14     8    25    2
    15     9    35   ar
    16     9    36   ar
    17    10    33    2
    18    11    12    1
    19    11    13    1
    20    11    15    1
    21    12    14    1
    22    12    21    1
    23    12    23    1
    24    13    17    1
    25    13    19    1
    26    13    24    1
    27    14    16    1
    28    14    18    1
    29    14    37    1
    30    15    25    1
    31    15    38    1
    32    16    20    1
    33    16    22    1
    34    16    26    1
    35    17    18    1
    36    17    39    1
    37    18    40    1
    38    18    41    1
    39    19    30    1
    40    19    42    1
    41    20    27    1
    42    20    28    2
    43    21    28    1
    44    22    29    1
    45    22    43    1
    46    23    44    1
    47    23    45    1
    48    23    46    1
    49    24    47    1
    50    24    48    1
    51    24    49    1
    52    26    50    1
    53    26    51    1
    54    27    31    1
    55    27    32    1
    56    29    33    1
    57    29    52    1
    58    29    53    1
    59    30    34   ar
    60    30    35   ar
    61    31    55    1
    62    31    56    1
    63    31    57    1
    64    32    58    1
    65    32    59    1
    66    32    60    1
    67    34    36   ar
    68    34    62    1
    69    35    63    1
    70    36    64    1
