@<TRIPOS>MOLECULE
IMPHY007884
 124 130 0 0 0
SMALL
GASTEIGER

@<TRIPOS>ATOM
      1 O           6.8671   -5.1646    0.0000 O.3     1  UNL1       -0.3449
      2 O           9.6611    2.2612    0.0000 O.3     1  UNL1       -0.3906
      3 O           8.0533    4.3140    0.0000 O.3     1  UNL1       -0.4318
      4 O           9.3929    3.2161    0.0000 O.2     1  UNL1       -0.2500
      5 O           5.1350   -5.1646    0.0000 O.3     1  UNL1       -0.3405
      6 O           8.3343    6.0231    0.0000 O.3     1  UNL1       -0.3312
      7 O           6.8671   -7.1646    0.0000 O.3     1  UNL1       -0.3841
      8 O           5.1350   -8.1646    0.0000 O.3     1  UNL1       -0.3864
      9 O           3.4030   -7.1646    0.0000 O.3     1  UNL1       -0.3865
     10 O          10.0268    3.9895    0.0000 O.3     1  UNL1       -0.3829
     11 O          11.2945    5.5364    0.0000 O.3     1  UNL1       -0.3864
     12 O           2.5369   -5.6646    0.0000 O.3     1  UNL1       -0.3924
     13 O          10.5888    7.4077    0.0000 O.3     1  UNL1       -0.3865
     14 O           7.6286    7.8945    0.0000 O.3     1  UNL1       -0.3924
     15 C           7.7681   -0.4644    0.0000 C.3     1  UNL1       -0.0193
     16 C           6.9040   -0.9677    0.0000 C.3     1  UNL1       -0.0257
     17 C           6.8920   -2.0093    0.0000 C.3     1  UNL1       -0.0250
     18 C           7.7643    0.5356    0.0000 C.3     1  UNL1       -0.0028
     19 C           7.7920   -2.5336    0.0000 C.3     1  UNL1       -0.0278
     20 C           8.6801   -0.9677    0.0000 C.3     1  UNL1       -0.0463
     21 C           8.6921   -2.0093    0.0000 C.3     1  UNL1       -0.0486
     22 C           6.8963    1.0323    0.0000 C.2     1  UNL1       -0.0627
     23 C           7.8046   -3.6185    0.0000 C.3     1  UNL1       -0.0052
     24 C           6.8762    2.0737    0.0000 C.3     1  UNL1       -0.0007
     25 C           6.0361   -0.4710    0.0000 C.3     1  UNL1       -0.0306
     26 C           8.6723    1.0460    0.0000 C.3     1  UNL1       -0.0162
     27 C           5.9421   -2.5336    0.0000 C.3     1  UNL1       -0.0447
     28 C           7.7722    2.6049    0.0000 C.3     1  UNL1        0.1000
     29 C           8.6763    2.0876    0.0000 C.3     1  UNL1        0.0723
     30 C           8.7522   -0.2869    0.0000 C.3     1  UNL1       -0.0585
     31 C           6.8671   -4.1646    0.0000 C.3     1  UNL1        0.0672
     32 C           6.0322    0.5289    0.0000 C.2     1  UNL1       -0.0836
     33 C           6.0279   -1.5059    0.0000 C.3     1  UNL1       -0.0590
     34 C           5.9295   -3.6185    0.0000 C.3     1  UNL1       -0.0255
     35 C           8.7497    0.3658    0.0000 C.3     1  UNL1       -0.0552
     36 C           5.9223    2.5907    0.0000 C.3     1  UNL1       -0.0402
     37 C           7.7764    3.6899    0.0000 C.3     1  UNL1       -0.0338
     38 C           5.9014    3.6755    0.0000 C.3     1  UNL1       -0.0343
     39 C           8.8046   -3.6108    0.0000 C.3     1  UNL1       -0.0572
     40 C           8.3113   -4.4806    0.0000 C.3     1  UNL1       -0.0572
     41 C           6.8347    4.2288    0.0000 C.3     1  UNL1       -0.0467
     42 C           8.4061    3.3784    0.0000 C.2     1  UNL1        0.3186
     43 C           5.3881    4.5337    0.0000 C.3     1  UNL1       -0.0598
     44 C           4.9015    3.6600    0.0000 C.3     1  UNL1       -0.0598
     45 C           6.0010   -5.6646    0.0000 C.3     1  UNL1        0.1882
     46 C           6.0010   -6.6646    0.0000 C.3     1  UNL1        0.1341
     47 C           8.6872    5.0874    0.0000 C.3     1  UNL1        0.2337
     48 C           5.1350   -7.1646    0.0000 C.3     1  UNL1        0.1141
     49 C           4.2690   -5.6646    0.0000 C.3     1  UNL1        0.1130
     50 C           4.2690   -6.6646    0.0000 C.3     1  UNL1        0.1119
     51 C           9.6739    4.9252    0.0000 C.3     1  UNL1        0.1455
     52 C          10.3078    5.6986    0.0000 C.3     1  UNL1        0.1152
     53 C           8.9682    6.7966    0.0000 C.3     1  UNL1        0.1140
     54 C           3.4030   -5.1646    0.0000 C.3     1  UNL1        0.0730
     55 C           9.9549    6.6343    0.0000 C.3     1  UNL1        0.1120
     56 C           8.6153    7.7322    0.0000 C.3     1  UNL1        0.0731
     57 H           7.6385   -1.3955    0.0000 H       1  UNL1        0.0315
     58 H           8.5314   -2.9529    0.0000 H       1  UNL1        0.0312
     59 H           9.2921   -1.0667    0.0000 H       1  UNL1        0.0271
     60 H           8.8824   -0.3816    0.0000 H       1  UNL1        0.0271
     61 H           8.9079   -2.5905    0.0000 H       1  UNL1        0.0268
     62 H           9.3017   -1.8961    0.0000 H       1  UNL1        0.0268
     63 H           6.1502    1.6318    0.0000 H       1  UNL1        0.0357
     64 H           5.4251   -0.3657    0.0000 H       1  UNL1        0.0310
     65 H           5.8263   -1.0545    0.0000 H       1  UNL1        0.0310
     66 H           8.8791    0.4615    0.0000 H       1  UNL1        0.0299
     67 H           9.2836    1.1497    0.0000 H       1  UNL1        0.0299
     68 H           5.7398   -1.9475    0.0000 H       1  UNL1        0.0271
     69 H           5.3300   -2.6326    0.0000 H       1  UNL1        0.0271
     70 H           8.7828    2.6984    0.0000 H       1  UNL1        0.0605
     71 H           8.8623   -0.8971    0.0000 H       1  UNL1        0.0235
     72 H           9.3624   -0.1769    0.0000 H       1  UNL1        0.0235
     73 H           8.6422    0.3232    0.0000 H       1  UNL1        0.0235
     74 H           7.4046   -4.4736    0.0000 H       1  UNL1        0.0602
     75 H           5.4941    0.8369    0.0000 H       1  UNL1        0.0572
     76 H           6.3400   -0.9702    0.0000 H       1  UNL1        0.0235
     77 H           5.4922   -1.1939    0.0000 H       1  UNL1        0.0235
     78 H           5.7158   -2.0417    0.0000 H       1  UNL1        0.0235
     79 H           5.3199   -3.5053    0.0000 H       1  UNL1        0.0290
     80 H           5.7137   -4.1997    0.0000 H       1  UNL1        0.0290
     81 H           8.6444   -0.2452    0.0000 H       1  UNL1        0.0238
     82 H           9.3607    0.2605    0.0000 H       1  UNL1        0.0238
     83 H           8.8550    0.9768    0.0000 H       1  UNL1        0.0238
     84 H           5.3095    2.6850    0.0000 H       1  UNL1        0.0276
     85 H           5.7246    2.0030    0.0000 H       1  UNL1        0.0276
     86 H           8.3869    3.5815    0.0000 H       1  UNL1        0.0277
     87 H           7.9877    4.2728    0.0000 H       1  UNL1        0.0277
     88 H           7.7767   -4.7948    0.0000 H       1  UNL1        0.0236
     89 H           8.6254   -5.0152    0.0000 H       1  UNL1        0.0236
     90 H           8.8094   -4.2307    0.0000 H       1  UNL1        0.0236
     91 H           9.4246   -3.6060    0.0000 H       1  UNL1        0.0236
     92 H           8.7998   -2.9908    0.0000 H       1  UNL1        0.0236
     93 H           8.8458   -4.1665    0.0000 H       1  UNL1        0.0236
     94 H           7.2302    4.7063    0.0000 H       1  UNL1        0.0271
     95 H           6.4319    4.7001    0.0000 H       1  UNL1        0.0271
     96 H          10.0597    1.7863    0.0000 H       1  UNL1        0.2098
     97 H           5.9202    4.8519    0.0000 H       1  UNL1        0.0235
     98 H           5.0699    5.0658    0.0000 H       1  UNL1        0.0235
     99 H           4.8560    4.2154    0.0000 H       1  UNL1        0.0235
    100 H           4.8920    4.2800    0.0000 H       1  UNL1        0.0235
    101 H           4.2816    3.6505    0.0000 H       1  UNL1        0.0235
    102 H           4.9111    3.0401    0.0000 H       1  UNL1        0.0235
    103 H           6.0010   -5.0446    0.0000 H       1  UNL1        0.0937
    104 H           6.0010   -7.2846    0.0000 H       1  UNL1        0.0671
    105 H           8.0754    5.1880    0.0000 H       1  UNL1        0.1085
    106 H           4.5981   -7.4746    0.0000 H       1  UNL1        0.0648
    107 H           4.2690   -5.0446    0.0000 H       1  UNL1        0.0647
    108 H           3.7320   -6.3546    0.0000 H       1  UNL1        0.0647
    109 H          10.2857    4.8246    0.0000 H       1  UNL1        0.0683
    110 H           6.8671   -7.7846    0.0000 H       1  UNL1        0.2101
    111 H          10.7008    6.1781    0.0000 H       1  UNL1        0.0648
    112 H           8.3564    6.8972    0.0000 H       1  UNL1        0.0647
    113 H           3.8015   -4.6896    0.0000 H       1  UNL1        0.0584
    114 H           3.0044   -4.6896    0.0000 H       1  UNL1        0.0584
    115 H           9.7362    7.2144    0.0000 H       1  UNL1        0.0647
    116 H           4.5981   -8.4746    0.0000 H       1  UNL1        0.2100
    117 H           3.4030   -7.7846    0.0000 H       1  UNL1        0.2100
    118 H          10.6386    3.8889    0.0000 H       1  UNL1        0.2102
    119 H           9.2246    7.8469    0.0000 H       1  UNL1        0.0584
    120 H           8.6082    8.3522    0.0000 H       1  UNL1        0.0584
    121 H          11.6876    6.0159    0.0000 H       1  UNL1        0.2100
    122 H           2.0000   -5.3546    0.0000 H       1  UNL1        0.2095
    123 H          10.3700    7.9878    0.0000 H       1  UNL1        0.2100
    124 H           7.4098    8.4746    0.0000 H       1  UNL1        0.2095
@<TRIPOS>BOND
     1    31     1    1
     2    45     1    1
     3    29     2    1
     4     2    96    1
     5     3    42    1
     6    47     3    1
     7     4    42    2
     8     5    45    1
     9     5    49    1
    10     6    47    1
    11     6    53    1
    12    46     7    1
    13     7   110    1
    14    48     8    1
    15     8   116    1
    16    50     9    1
    17     9   117    1
    18    51    10    1
    19    10   118    1
    20    52    11    1
    21    11   121    1
    22    12    54    1
    23    12   122    1
    24    55    13    1
    25    13   123    1
    26    14    56    1
    27    14   124    1
    28    15    16    1
    29    15    18    1
    30    15    20    1
    31    15    30    1
    32    16    17    1
    33    16    25    1
    34    16    57    1
    35    17    19    1
    36    17    27    1
    37    17    33    1
    38    18    22    1
    39    18    26    1
    40    18    35    1
    41    19    21    1
    42    19    23    1
    43    19    58    1
    44    20    21    1
    45    20    59    1
    46    20    60    1
    47    21    61    1
    48    21    62    1
    49    22    24    1
    50    22    32    2
    51    23    31    1
    52    23    39    1
    53    23    40    1
    54    24    28    1
    55    24    36    1
    56    24    63    1
    57    25    32    1
    58    25    64    1
    59    25    65    1
    60    26    29    1
    61    26    66    1
    62    26    67    1
    63    27    34    1
    64    27    68    1
    65    27    69    1
    66    28    29    1
    67    28    37    1
    68    28    42    1
    69    29    70    1
    70    30    71    1
    71    30    72    1
    72    30    73    1
    73    31    34    1
    74    31    74    1
    75    32    75    1
    76    33    76    1
    77    33    77    1
    78    33    78    1
    79    34    79    1
    80    34    80    1
    81    35    81    1
    82    35    82    1
    83    35    83    1
    84    36    38    1
    85    36    84    1
    86    36    85    1
    87    37    41    1
    88    37    86    1
    89    37    87    1
    90    38    41    1
    91    38    43    1
    92    38    44    1
    93    39    90    1
    94    39    91    1
    95    39    92    1
    96    40    88    1
    97    40    89    1
    98    40    93    1
    99    41    94    1
   100    41    95    1
   101    43    97    1
   102    43    98    1
   103    43    99    1
   104    44   100    1
   105    44   101    1
   106    44   102    1
   107    45    46    1
   108    45   103    1
   109    46    48    1
   110    46   104    1
   111    47    51    1
   112    47   105    1
   113    48    50    1
   114    48   106    1
   115    49    50    1
   116    49    54    1
   117    49   107    1
   118    50   108    1
   119    51    52    1
   120    51   109    1
   121    52    55    1
   122    52   111    1
   123    53    55    1
   124    53    56    1
   125    53   112    1
   126    54   113    1
   127    54   114    1
   128    55   115    1
   129    56   119    1
   130    56   120    1
