@<TRIPOS>MOLECULE
IMPHY002663
 59 63 0 0 0
SMALL
GASTEIGER

@<TRIPOS>ATOM
      1 O           9.7082   -0.6613    0.0000 O.3     1  UNL1       -0.3580
      2 O           9.0532    2.0204    0.0000 O.3     1  UNL1       -0.4545
      3 O           5.9670   -0.2250    0.0000 O.2     1  UNL1       -0.4709
      4 O           6.8671   -1.7492    0.0000 O.3     1  UNL1       -0.3095
      5 O           8.5136   -2.2653    0.0000 O.3     1  UNL1       -0.3921
      6 O           5.1350   -1.7492    0.0000 O.3     1  UNL1       -0.3404
      7 O          10.6942    1.4662    0.0000 O.2     1  UNL1       -0.2449
      8 O           6.8671   -3.7492    0.0000 O.3     1  UNL1       -0.3841
      9 O           5.1350   -4.7492    0.0000 O.3     1  UNL1       -0.3864
     10 O           3.4030   -3.7492    0.0000 O.3     1  UNL1       -0.3865
     11 O           2.5369   -2.2492    0.0000 O.3     1  UNL1       -0.3924
     12 C           8.7145   -0.5449    0.0000 C.3     1  UNL1        0.1316
     13 C           9.3116    0.2572    0.0000 C.3     1  UNL1        0.1284
     14 C           7.7671   -0.2250    0.0000 C.3     1  UNL1        0.0652
     15 C           7.7787    0.7750    0.0000 C.3     1  UNL1        0.0312
     16 C           8.7333    1.0730    0.0000 C.3     1  UNL1        0.1390
     17 C           8.1174   -1.3471    0.0000 C.3     1  UNL1        0.0763
     18 C           6.8671   -0.7492    0.0000 C.3     1  UNL1        0.2097
     19 C           6.8910    1.3199    0.0000 C.2     1  UNL1       -0.0423
     20 C           5.9790    0.8166    0.0000 C.2     1  UNL1        0.0843
     21 C           6.0010   -2.2492    0.0000 C.3     1  UNL1        0.1918
     22 C          10.0337    2.2170    0.0000 C.2     1  UNL1        0.3395
     23 C           6.0010   -3.2492    0.0000 C.3     1  UNL1        0.1342
     24 C           5.1350   -3.7492    0.0000 C.3     1  UNL1        0.1141
     25 C           4.2690   -2.2492    0.0000 C.3     1  UNL1        0.1130
     26 C           4.2690   -3.2492    0.0000 C.3     1  UNL1        0.1119
     27 C          10.3537    3.1644    0.0000 C.ar    1  UNL1        0.0590
     28 C           3.4030   -1.7492    0.0000 C.3     1  UNL1        0.0730
     29 C          11.3342    3.3610    0.0000 C.ar    1  UNL1       -0.0478
     30 C           9.6932    3.9152    0.0000 C.ar    1  UNL1       -0.0478
     31 C          11.6542    4.3084    0.0000 C.ar    1  UNL1       -0.0610
     32 C          10.0132    4.8627    0.0000 C.ar    1  UNL1       -0.0610
     33 C          10.9937    5.0592    0.0000 C.ar    1  UNL1       -0.0617
     34 H          10.0526    0.6738    0.0000 H       1  UNL1        0.0663
     35 H           7.8527   -1.0706    0.0000 H       1  UNL1        0.0398
     36 H           7.8838    1.6184    0.0000 H       1  UNL1        0.0386
     37 H           9.3467    1.1629    0.0000 H       1  UNL1        0.0767
     38 H           7.6919   -0.8962    0.0000 H       1  UNL1        0.0587
     39 H           7.5995   -1.6878    0.0000 H       1  UNL1        0.0587
     40 H           7.4046   -1.0582    0.0000 H       1  UNL1        0.1060
     41 H           6.9053    1.9398    0.0000 H       1  UNL1        0.0606
     42 H           5.4470    1.1348    0.0000 H       1  UNL1        0.1021
     43 H           9.1294   -2.3372    0.0000 H       1  UNL1        0.2095
     44 H           6.0010   -1.6292    0.0000 H       1  UNL1        0.0939
     45 H           6.0010   -3.8692    0.0000 H       1  UNL1        0.0671
     46 H           4.5981   -4.0592    0.0000 H       1  UNL1        0.0648
     47 H           4.2690   -1.6292    0.0000 H       1  UNL1        0.0647
     48 H           3.7320   -2.9392    0.0000 H       1  UNL1        0.0647
     49 H           3.8015   -1.2743    0.0000 H       1  UNL1        0.0584
     50 H           3.0044   -1.2743    0.0000 H       1  UNL1        0.0584
     51 H           6.8671   -4.3692    0.0000 H       1  UNL1        0.2101
     52 H           4.5981   -5.0592    0.0000 H       1  UNL1        0.2100
     53 H          11.7437    2.8955    0.0000 H       1  UNL1        0.0626
     54 H           9.0853    3.7934    0.0000 H       1  UNL1        0.0626
     55 H           3.4030   -4.3692    0.0000 H       1  UNL1        0.2100
     56 H           2.0000   -1.9392    0.0000 H       1  UNL1        0.2095
     57 H          12.2621    4.4303    0.0000 H       1  UNL1        0.0618
     58 H           9.6037    5.3282    0.0000 H       1  UNL1        0.0618
     59 H          11.1921    5.6466    0.0000 H       1  UNL1        0.0618
@<TRIPOS>BOND
     1     1    12    1
     2     1    13    1
     3    16     2    1
     4     2    22    1
     5     3    18    1
     6     3    20    1
     7    18     4    1
     8    21     4    1
     9     5    17    1
    10     5    43    1
    11     6    21    1
    12     6    25    1
    13     7    22    2
    14    23     8    1
    15     8    51    1
    16    24     9    1
    17     9    52    1
    18    26    10    1
    19    10    55    1
    20    11    28    1
    21    11    56    1
    22    12    13    1
    23    12    14    1
    24    12    17    1
    25    13    16    1
    26    13    34    1
    27    14    15    1
    28    14    18    1
    29    14    35    1
    30    15    16    1
    31    15    19    1
    32    15    36    1
    33    16    37    1
    34    17    38    1
    35    17    39    1
    36    18    40    1
    37    19    20    2
    38    19    41    1
    39    20    42    1
    40    21    23    1
    41    21    44    1
    42    22    27    1
    43    23    24    1
    44    23    45    1
    45    24    26    1
    46    24    46    1
    47    25    26    1
    48    25    28    1
    49    25    47    1
    50    26    48    1
    51    27    29   ar
    52    27    30   ar
    53    28    49    1
    54    28    50    1
    55    29    31   ar
    56    29    53    1
    57    30    32   ar
    58    30    54    1
    59    31    33   ar
    60    31    57    1
    61    32    33   ar
    62    32    58    1
    63    33    59    1
