@<TRIPOS>MOLECULE
IMPHY009177
 54 57 0 0 0
SMALL
GASTEIGER

@<TRIPOS>ATOM
      1 O           3.9061   -0.1897    0.0000 O.3     1  UNL1       -0.4811
      2 O           7.4260   -0.1897    0.0000 O.2     1  UNL1       -0.4504
      3 O           5.6660    2.8450    0.0000 O.3     1  UNL1       -0.5052
      4 O           7.4144    2.8796    0.0000 O.2     1  UNL1       -0.2830
      5 O           9.1962    1.8692    0.0000 O.3     1  UNL1       -0.5007
      6 C           3.0000    0.3242    0.0000 C.3     1  UNL1        0.1235
      7 C           4.8000    0.3450    0.0000 C.ar    1  UNL1        0.1393
      8 C           5.6660   -0.1550    0.0000 C.ar    1  UNL1        0.0417
      9 C           4.8000    1.3450    0.0000 C.ar    1  UNL1        0.0591
     10 C           6.5320    0.3450    0.0000 C.ar    1  UNL1        0.1500
     11 C           3.0000    1.3658    0.0000 C.2     1  UNL1       -0.0408
     12 C           6.5320    1.3450    0.0000 C.ar    1  UNL1        0.1100
     13 C           5.6660    1.8450    0.0000 C.ar    1  UNL1        0.1419
     14 C           3.9061    1.8797    0.0000 C.2     1  UNL1       -0.0478
     15 C           5.6660   -1.1550    0.0000 C.3     1  UNL1       -0.0022
     16 C           2.0000    0.3203    0.0000 C.3     1  UNL1       -0.0215
     17 C           2.5033   -0.5438    0.0000 C.3     1  UNL1       -0.0215
     18 C           7.4260    1.8797    0.0000 C.ar    1  UNL1        0.2379
     19 C           8.3321    0.3242    0.0000 C.ar    1  UNL1        0.1806
     20 C           4.8000   -1.6550    0.0000 C.2     1  UNL1       -0.0807
     21 C           8.3321    1.3658    0.0000 C.ar    1  UNL1        0.2082
     22 C           9.1962   -0.1792    0.0000 C.ar    1  UNL1        0.0211
     23 C           4.8000   -2.6550    0.0000 C.2     1  UNL1       -0.0793
     24 C           9.1923   -1.1791    0.0000 C.ar    1  UNL1       -0.0510
     25 C          10.0641    0.3175    0.0000 C.ar    1  UNL1       -0.0510
     26 C           3.9340   -3.1550    0.0000 C.3     1  UNL1       -0.0440
     27 C           5.6660   -3.1550    0.0000 C.3     1  UNL1       -0.0440
     28 C          10.0564   -1.6825    0.0000 C.ar    1  UNL1       -0.0611
     29 C          10.9282   -0.1858    0.0000 C.ar    1  UNL1       -0.0611
     30 C          10.9243   -1.1858    0.0000 C.ar    1  UNL1       -0.0617
     31 H           2.4643    1.6779    0.0000 H       1  UNL1        0.0611
     32 H           3.9132    2.4996    0.0000 H       1  UNL1        0.0624
     33 H           5.8781   -1.7376    0.0000 H       1  UNL1        0.0358
     34 H           6.2766   -1.0473    0.0000 H       1  UNL1        0.0358
     35 H           1.9652   -0.2358    0.0000 H       1  UNL1        0.0271
     36 H           1.9976    0.9403    0.0000 H       1  UNL1        0.0271
     37 H           1.3800    0.3179    0.0000 H       1  UNL1        0.0271
     38 H           2.0024   -0.2997    0.0000 H       1  UNL1        0.0271
     39 H           2.1954   -1.0819    0.0000 H       1  UNL1        0.0271
     40 H           3.0415   -0.8517    0.0000 H       1  UNL1        0.0271
     41 H           4.2631   -1.3450    0.0000 H       1  UNL1        0.0575
     42 H           5.1291    3.1550    0.0000 H       1  UNL1        0.2922
     43 H           8.6542   -1.4871    0.0000 H       1  UNL1        0.0625
     44 H          10.0665    0.9375    0.0000 H       1  UNL1        0.0625
     45 H           3.6240   -2.6181    0.0000 H       1  UNL1        0.0274
     46 H           5.3560   -3.6919    0.0000 H       1  UNL1        0.0274
     47 H           6.2030   -3.4650    0.0000 H       1  UNL1        0.0274
     48 H           5.9760   -2.6181    0.0000 H       1  UNL1        0.0274
     49 H           3.3970   -3.4650    0.0000 H       1  UNL1        0.0274
     50 H           4.2440   -3.6919    0.0000 H       1  UNL1        0.0274
     51 H           9.1938    2.4892    0.0000 H       1  UNL1        0.2924
     52 H          10.0540   -2.3025    0.0000 H       1  UNL1        0.0618
     53 H          11.4663    0.1221    0.0000 H       1  UNL1        0.0618
     54 H          11.4601   -1.4979    0.0000 H       1  UNL1        0.0618
@<TRIPOS>BOND
     1     1     6    1
     2     1     7    1
     3     2    10   ar
     4     2    19   ar
     5     3    13    1
     6     3    42    1
     7     4    18    2
     8     5    21    1
     9     5    51    1
    10     6    11    1
    11     6    16    1
    12     6    17    1
    13     7     8   ar
    14     7     9   ar
    15     8    10   ar
    16     8    15    1
    17     9    13   ar
    18     9    14    1
    19    10    12   ar
    20    11    14    2
    21    11    31    1
    22    12    13   ar
    23    12    18   ar
    24    14    32    1
    25    15    20    1
    26    15    33    1
    27    15    34    1
    28    16    36    1
    29    16    37    1
    30    16    38    1
    31    17    35    1
    32    17    39    1
    33    17    40    1
    34    18    21   ar
    35    19    21   ar
    36    19    22    1
    37    20    23    2
    38    20    41    1
    39    22    24   ar
    40    22    25   ar
    41    23    26    1
    42    23    27    1
    43    24    28   ar
    44    24    43    1
    45    25    29   ar
    46    25    44    1
    47    26    45    1
    48    26    49    1
    49    26    50    1
    50    27    46    1
    51    27    47    1
    52    27    48    1
    53    28    30   ar
    54    28    52    1
    55    29    30   ar
    56    29    53    1
    57    30    54    1
