@<TRIPOS>MOLECULE
IMPHY012408
 50 52 0 0 0
SMALL
GASTEIGER

@<TRIPOS>ATOM
      1 O           5.5442    2.4895    0.0000 O.3     1  UNL1       -0.4944
      2 O           7.3219    2.4654    0.0000 O.2     1  UNL1       -0.2922
      3 C           3.8000   -1.5798    0.0000 C.3     1  UNL1       -0.0262
      4 C           3.8000   -0.5798    0.0000 C.3     1  UNL1       -0.0034
      5 C           2.9061   -2.1144    0.0000 C.3     1  UNL1       -0.0312
      6 C           2.9061   -0.0451    0.0000 C.3     1  UNL1       -0.0433
      7 C           2.0000   -1.6006    0.0000 C.3     1  UNL1       -0.0476
      8 C           4.6660   -2.0798    0.0000 C.3     1  UNL1       -0.0449
      9 C           2.0000   -0.5589    0.0000 C.3     1  UNL1       -0.0518
     10 C           4.6660   -0.0798    0.0000 C.ar    1  UNL1       -0.0345
     11 C           5.5321   -1.5798    0.0000 C.3     1  UNL1       -0.0271
     12 C           3.8000    0.4202    0.0000 C.3     1  UNL1       -0.0553
     13 C           2.4161   -2.9862    0.0000 C.3     1  UNL1       -0.0595
     14 C           3.4160   -2.9746    0.0000 C.3     1  UNL1       -0.0595
     15 C           5.5321   -0.5798    0.0000 C.ar    1  UNL1       -0.0428
     16 C           4.6500    0.9618    0.0000 C.ar    1  UNL1       -0.0153
     17 C           6.4421   -0.0729    0.0000 C.ar    1  UNL1       -0.0443
     18 C           5.5480    1.4895    0.0000 C.ar    1  UNL1        0.1308
     19 C           6.4501    0.9687    0.0000 C.ar    1  UNL1        0.0590
     20 C           7.3180    1.4654    0.0000 C.2     1  UNL1        0.1636
     21 C           8.1821    0.9620    0.0000 C.3     1  UNL1       -0.0013
     22 C           4.6762    2.9862    0.0000 C.3     1  UNL1        0.0788
     23 H           3.8066   -2.4297    0.0000 H       1  UNL1        0.0314
     24 H           3.3107    0.4247    0.0000 H       1  UNL1        0.0274
     25 H           2.5124    0.4339    0.0000 H       1  UNL1        0.0274
     26 H           1.3891   -1.4945    0.0000 H       1  UNL1        0.0271
     27 H           1.7909   -2.1843    0.0000 H       1  UNL1        0.0271
     28 H           4.2675   -2.5547    0.0000 H       1  UNL1        0.0271
     29 H           5.0646   -2.5547    0.0000 H       1  UNL1        0.0271
     30 H           1.7909    0.0248    0.0000 H       1  UNL1        0.0266
     31 H           1.3891   -0.6650    0.0000 H       1  UNL1        0.0266
     32 H           5.7441   -2.1624    0.0000 H       1  UNL1        0.0313
     33 H           6.1426   -1.4721    0.0000 H       1  UNL1        0.0313
     34 H           4.4200    0.4202    0.0000 H       1  UNL1        0.0238
     35 H           3.8000    1.0402    0.0000 H       1  UNL1        0.0238
     36 H           3.1800    0.4202    0.0000 H       1  UNL1        0.0238
     37 H           1.8756   -2.6824    0.0000 H       1  UNL1        0.0235
     38 H           2.1123   -3.5266    0.0000 H       1  UNL1        0.0235
     39 H           2.9566   -3.2899    0.0000 H       1  UNL1        0.0235
     40 H           2.8827   -3.2908    0.0000 H       1  UNL1        0.0235
     41 H           3.7322   -3.5079    0.0000 H       1  UNL1        0.0235
     42 H           3.9494   -2.6584    0.0000 H       1  UNL1        0.0235
     43 H           4.1095    1.2655    0.0000 H       1  UNL1        0.0657
     44 H           6.9754   -0.3891    0.0000 H       1  UNL1        0.0628
     45 H           7.8701    0.4263    0.0000 H       1  UNL1        0.0309
     46 H           8.7179    0.6500    0.0000 H       1  UNL1        0.0309
     47 H           8.4942    1.4978    0.0000 H       1  UNL1        0.0309
     48 H           4.9841    3.5243    0.0000 H       1  UNL1        0.0660
     49 H           4.1381    3.2941    0.0000 H       1  UNL1        0.0660
     50 H           4.3683    2.4480    0.0000 H       1  UNL1        0.0660
@<TRIPOS>BOND
     1     1    18    1
     2     1    22    1
     3     2    20    2
     4     3     4    1
     5     3     5    1
     6     3     8    1
     7     3    23    1
     8     4     6    1
     9     4    10    1
    10     4    12    1
    11     5     7    1
    12     5    13    1
    13     5    14    1
    14     6     9    1
    15     6    24    1
    16     6    25    1
    17     7     9    1
    18     7    26    1
    19     7    27    1
    20     8    11    1
    21     8    28    1
    22     8    29    1
    23     9    30    1
    24     9    31    1
    25    10    15   ar
    26    10    16   ar
    27    11    15    1
    28    11    32    1
    29    11    33    1
    30    12    34    1
    31    12    35    1
    32    12    36    1
    33    13    37    1
    34    13    38    1
    35    13    39    1
    36    14    40    1
    37    14    41    1
    38    14    42    1
    39    15    17   ar
    40    16    18   ar
    41    16    43    1
    42    17    19   ar
    43    17    44    1
    44    18    19   ar
    45    19    20    1
    46    20    21    1
    47    21    45    1
    48    21    46    1
    49    21    47    1
    50    22    48    1
    51    22    49    1
    52    22    50    1
