@<TRIPOS>MOLECULE
IMPHY013445
 96 101 0 0 0
SMALL
GASTEIGER

@<TRIPOS>ATOM
      1 O          10.4037   -0.2500    0.0000 O.3     1  UNL1       -0.3313
      2 O           9.5376   -2.7500    0.0000 O.3     1  UNL1       -0.3461
      3 O           7.8056   -2.7500    0.0000 O.3     1  UNL1       -0.3431
      4 O          11.2697   -2.7500    0.0000 O.3     1  UNL1       -0.3865
      5 O          11.2697    1.2500    0.0000 O.3     1  UNL1       -0.4532
      6 O          13.0017   -1.7500    0.0000 O.3     1  UNL1       -0.3864
      7 O          13.0017    0.2500    0.0000 O.3     1  UNL1       -0.3829
      8 O           9.5376   -4.7500    0.0000 O.3     1  UNL1       -0.3841
      9 O           7.8056   -5.7500    0.0000 O.3     1  UNL1       -0.3864
     10 O           4.2755    3.2808    0.0000 O.3     1  UNL1       -0.3339
     11 O           6.0736   -4.7500    0.0000 O.3     1  UNL1       -0.3866
     12 O           6.0075    3.2742    0.0000 O.3     1  UNL1       -0.4606
     13 O           4.2639    0.2808    0.0000 O.3     1  UNL1       -0.3864
     14 O           2.5357    1.2875    0.0000 O.3     1  UNL1       -0.3866
     15 O           5.9998    1.2742    0.0000 O.3     1  UNL1       -0.3829
     16 O           9.5376    3.2500    0.0000 O.2     1  UNL1       -0.4507
     17 O           9.5376    0.2500    0.0000 O.2     1  UNL1       -0.2830
     18 O           7.7892    0.2154    0.0000 O.3     1  UNL1       -0.5058
     19 O          12.1357    5.7500    0.0000 O.3     1  UNL1       -0.5033
     20 O          13.8678    4.7500    0.0000 O.3     1  UNL1       -0.4915
     21 C          10.4037   -1.2500    0.0000 C.3     1  UNL1        0.1144
     22 C          11.2697   -1.7500    0.0000 C.3     1  UNL1        0.1120
     23 C          12.1357   -1.2500    0.0000 C.3     1  UNL1        0.1152
     24 C          12.1357   -0.2500    0.0000 C.3     1  UNL1        0.1454
     25 C           8.6716   -4.2500    0.0000 C.3     1  UNL1        0.1341
     26 C           8.6716   -3.2500    0.0000 C.3     1  UNL1        0.1879
     27 C           7.8056   -4.7500    0.0000 C.3     1  UNL1        0.1140
     28 C          11.2697    0.2500    0.0000 C.3     1  UNL1        0.2311
     29 C           6.9396   -4.2500    0.0000 C.3     1  UNL1        0.1095
     30 C           9.5376   -1.7500    0.0000 C.3     1  UNL1        0.0796
     31 C           6.9396   -3.2500    0.0000 C.3     1  UNL1        0.0873
     32 C           4.2678    1.2808    0.0000 C.3     1  UNL1        0.1151
     33 C           3.4037    1.7842    0.0000 C.3     1  UNL1        0.1096
     34 C           5.1357    1.7775    0.0000 C.3     1  UNL1        0.1454
     35 C           3.4075    2.7842    0.0000 C.3     1  UNL1        0.0883
     36 C           6.0736   -2.7500    0.0000 C.3     1  UNL1       -0.0361
     37 C           5.1396    2.7775    0.0000 C.3     1  UNL1        0.2307
     38 C           2.5434    3.2875    0.0000 C.3     1  UNL1       -0.0360
     39 C          10.4037    1.7500    0.0000 C.ar    1  UNL1        0.2138
     40 C          10.4037    2.7500    0.0000 C.ar    1  UNL1        0.1810
     41 C           9.5376    1.2500    0.0000 C.ar    1  UNL1        0.2382
     42 C           6.8716    2.7708    0.0000 C.ar    1  UNL1        0.1310
     43 C           8.6716    1.7500    0.0000 C.ar    1  UNL1        0.1092
     44 C           8.6716    2.7500    0.0000 C.ar    1  UNL1        0.1465
     45 C           7.7777    3.2847    0.0000 C.ar    1  UNL1        0.0235
     46 C           7.7777    1.2153    0.0000 C.ar    1  UNL1        0.1348
     47 C           6.8716    1.7292    0.0000 C.ar    1  UNL1        0.0226
     48 C          11.2697    3.2500    0.0000 C.ar    1  UNL1        0.0247
     49 C          11.2697    4.2500    0.0000 C.ar    1  UNL1       -0.0057
     50 C          12.1357    2.7500    0.0000 C.ar    1  UNL1       -0.0473
     51 C          12.1357    4.7500    0.0000 C.ar    1  UNL1        0.1591
     52 C          13.0017    3.2500    0.0000 C.ar    1  UNL1       -0.0156
     53 C          13.0017    4.2500    0.0000 C.ar    1  UNL1        0.1613
     54 C          14.7338    4.2500    0.0000 C.3     1  UNL1        0.0790
     55 H           9.8667   -0.9400    0.0000 H       1  UNL1        0.0647
     56 H          10.7328   -2.0600    0.0000 H       1  UNL1        0.0647
     57 H          12.1357   -1.8700    0.0000 H       1  UNL1        0.0648
     58 H          12.6727   -0.5600    0.0000 H       1  UNL1        0.0683
     59 H           8.6716   -4.8700    0.0000 H       1  UNL1        0.0671
     60 H           8.6716   -2.6300    0.0000 H       1  UNL1        0.0937
     61 H           7.2687   -5.0600    0.0000 H       1  UNL1        0.0648
     62 H          10.7328    0.5600    0.0000 H       1  UNL1        0.1084
     63 H           6.9396   -4.8700    0.0000 H       1  UNL1        0.0646
     64 H           9.3256   -1.1674    0.0000 H       1  UNL1        0.0587
     65 H           8.9271   -1.8577    0.0000 H       1  UNL1        0.0587
     66 H           6.9396   -2.6300    0.0000 H       1  UNL1        0.0621
     67 H           3.7296    0.9729    0.0000 H       1  UNL1        0.0648
     68 H           2.8680    2.0962    0.0000 H       1  UNL1        0.0646
     69 H           5.6738    2.0854    0.0000 H       1  UNL1        0.0683
     70 H           3.4099    3.4042    0.0000 H       1  UNL1        0.0621
     71 H           6.3835   -2.2131    0.0000 H       1  UNL1        0.0255
     72 H           5.5366   -2.4400    0.0000 H       1  UNL1        0.0255
     73 H           5.7636   -3.2869    0.0000 H       1  UNL1        0.0255
     74 H           5.1420    3.3975    0.0000 H       1  UNL1        0.1084
     75 H          11.8066   -3.0600    0.0000 H       1  UNL1        0.2100
     76 H          13.5387   -1.4400    0.0000 H       1  UNL1        0.2100
     77 H          13.0017    0.8700    0.0000 H       1  UNL1        0.2102
     78 H          10.0746   -4.4400    0.0000 H       1  UNL1        0.2101
     79 H           7.2687   -6.0600    0.0000 H       1  UNL1        0.2100
     80 H           5.5366   -4.4400    0.0000 H       1  UNL1        0.2100
     81 H           2.8555    3.8232    0.0000 H       1  UNL1        0.0255
     82 H           2.0077    3.5996    0.0000 H       1  UNL1        0.0255
     83 H           2.2314    2.7518    0.0000 H       1  UNL1        0.0255
     84 H           3.7258   -0.0271    0.0000 H       1  UNL1        0.2100
     85 H           2.0000    1.5996    0.0000 H       1  UNL1        0.2100
     86 H           5.9974    0.6542    0.0000 H       1  UNL1        0.2102
     87 H           7.7848    3.9046    0.0000 H       1  UNL1        0.0691
     88 H           6.3359    1.4171    0.0000 H       1  UNL1        0.0691
     89 H          10.7328    4.5600    0.0000 H       1  UNL1        0.0662
     90 H          12.1357    2.1300    0.0000 H       1  UNL1        0.0626
     91 H           7.2559   -0.1008    0.0000 H       1  UNL1        0.2922
     92 H          13.5387    2.9400    0.0000 H       1  UNL1        0.0655
     93 H          11.5988    6.0600    0.0000 H       1  UNL1        0.2923
     94 H          14.4238    3.7131    0.0000 H       1  UNL1        0.0660
     95 H          15.2707    3.9400    0.0000 H       1  UNL1        0.0660
     96 H          15.0438    4.7869    0.0000 H       1  UNL1        0.0660
@<TRIPOS>BOND
     1     1    21    1
     2     1    28    1
     3    26     2    1
     4     2    30    1
     5     3    26    1
     6     3    31    1
     7    22     4    1
     8     4    75    1
     9    28     5    1
    10     5    39    1
    11     6    23    1
    12     6    76    1
    13     7    24    1
    14     7    77    1
    15     8    25    1
    16     8    78    1
    17    27     9    1
    18     9    79    1
    19    10    35    1
    20    10    37    1
    21    29    11    1
    22    11    80    1
    23    37    12    1
    24    12    42    1
    25    32    13    1
    26    13    84    1
    27    33    14    1
    28    14    85    1
    29    15    34    1
    30    15    86    1
    31    16    40   ar
    32    16    44   ar
    33    17    41    2
    34    18    46    1
    35    18    91    1
    36    19    51    1
    37    19    93    1
    38    20    53    1
    39    20    54    1
    40    21    22    1
    41    21    30    1
    42    21    55    1
    43    22    23    1
    44    22    56    1
    45    23    24    1
    46    23    57    1
    47    24    28    1
    48    24    58    1
    49    25    26    1
    50    25    27    1
    51    25    59    1
    52    26    60    1
    53    27    29    1
    54    27    61    1
    55    28    62    1
    56    29    31    1
    57    29    63    1
    58    30    64    1
    59    30    65    1
    60    31    36    1
    61    31    66    1
    62    32    33    1
    63    32    34    1
    64    32    67    1
    65    33    35    1
    66    33    68    1
    67    34    37    1
    68    34    69    1
    69    35    38    1
    70    35    70    1
    71    36    71    1
    72    36    72    1
    73    36    73    1
    74    37    74    1
    75    38    81    1
    76    38    82    1
    77    38    83    1
    78    39    40   ar
    79    39    41   ar
    80    40    48    1
    81    41    43   ar
    82    42    45   ar
    83    42    47   ar
    84    43    44   ar
    85    43    46   ar
    86    44    45   ar
    87    45    87    1
    88    46    47   ar
    89    47    88    1
    90    48    49   ar
    91    48    50   ar
    92    49    51   ar
    93    49    89    1
    94    50    52   ar
    95    50    90    1
    96    51    53   ar
    97    52    53   ar
    98    52    92    1
    99    54    94    1
   100    54    95    1
   101    54    96    1
