@<TRIPOS>MOLECULE
IMPHY001013
 35 37 0 0 0
SMALL
GASTEIGER

@<TRIPOS>ATOM
      1 O           3.7230    0.2885    0.0000 O.3     1  UNL1       -0.4565
      2 O           8.0559    0.2083    0.0000 O.2     1  UNL1       -0.2876
      3 O           2.0000    0.7206    0.0000 O.2     1  UNL1       -0.2453
      4 O           5.1318   -2.2859    0.0000 O.3     1  UNL1       -0.3907
      5 C           4.5777    0.7961    0.0000 C.3     1  UNL1        0.1210
      6 C           4.3551    1.7710    0.0000 C.3     1  UNL1        0.0286
      7 C           5.4786    0.3622    0.0000 C.3     1  UNL1        0.0489
      8 C           4.9786    2.5529    0.0000 C.3     1  UNL1       -0.0389
      9 C           6.3796    0.7961    0.0000 C.2     1  UNL1        0.0089
     10 C           5.9786    2.5529    0.0000 C.3     1  UNL1       -0.0307
     11 C           5.6146   -0.6225    0.0000 C.2     1  UNL1       -0.0298
     12 C           6.6021    1.7710    0.0000 C.2     1  UNL1       -0.0651
     13 C           3.3648    1.8576    0.0000 C.2     1  UNL1        0.0361
     14 C           7.0647    0.0758    0.0000 C.2     1  UNL1        0.1828
     15 C           6.5929   -0.7992    0.0000 C.2     1  UNL1       -0.0126
     16 C           2.9749    0.9432    0.0000 C.2     1  UNL1        0.3353
     17 C           4.8930   -1.3148    0.0000 C.3     1  UNL1        0.0664
     18 C           7.5770    1.9936    0.0000 C.3     1  UNL1       -0.0431
     19 C           2.8504    2.7151    0.0000 C.2     1  UNL1       -0.0883
     20 H           4.6147   -0.0531    0.0000 H       1  UNL1        0.0749
     21 H           4.0200    2.5522    0.0000 H       1  UNL1        0.0387
     22 H           4.7916   -0.1383    0.0000 H       1  UNL1        0.0432
     23 H           5.1166    3.1573    0.0000 H       1  UNL1        0.0275
     24 H           4.4200    2.8219    0.0000 H       1  UNL1        0.0275
     25 H           6.5372    2.8219    0.0000 H       1  UNL1        0.0310
     26 H           5.8407    3.1573    0.0000 H       1  UNL1        0.0310
     27 H           6.8619   -1.3578    0.0000 H       1  UNL1        0.0656
     28 H           4.5480   -0.7997    0.0000 H       1  UNL1        0.0604
     29 H           4.3258   -1.5652    0.0000 H       1  UNL1        0.0604
     30 H           7.7150    1.3891    0.0000 H       1  UNL1        0.0275
     31 H           8.1815    2.1315    0.0000 H       1  UNL1        0.0275
     32 H           7.4391    2.5980    0.0000 H       1  UNL1        0.0275
     33 H           3.1514    3.2572    0.0000 H       1  UNL1        0.0540
     34 H           2.2305    2.7048    0.0000 H       1  UNL1        0.0540
     35 H           4.6844   -2.7151    0.0000 H       1  UNL1        0.2098
@<TRIPOS>BOND
     1     1     5    1
     2     1    16    1
     3     2    14    2
     4     3    16    2
     5     4    17    1
     6     4    35    1
     7     5     6    1
     8     5     7    1
     9     5    20    1
    10     6     8    1
    11     6    13    1
    12     6    21    1
    13     7     9    1
    14     7    11    1
    15     7    22    1
    16     8    10    1
    17     8    23    1
    18     8    24    1
    19     9    12    2
    20     9    14    1
    21    10    12    1
    22    10    25    1
    23    10    26    1
    24    11    15    2
    25    11    17    1
    26    12    18    1
    27    13    16    1
    28    13    19    2
    29    14    15    1
    30    15    27    1
    31    17    28    1
    32    17    29    1
    33    18    30    1
    34    18    31    1
    35    18    32    1
    36    19    33    1
    37    19    34    1
