@<TRIPOS>MOLECULE
IMPHY000325
 49 50 0 0 0
SMALL
GASTEIGER

@<TRIPOS>ATOM
      1 O           7.7907   -3.1371    0.0000 O.co2   1  UNL1       -0.7744
      2 O           5.5525    0.3309    0.0000 O.3     1  UNL1       -0.4579
      3 O           4.0574    0.5117    0.0000 O.3     1  UNL1       -0.3752
      4 O           2.9782    2.6488    0.0000 O.3     1  UNL1       -0.3766
      5 O           5.9126    2.0251    0.0000 O.2     1  UNL1       -0.2475
      6 N           7.7907   -2.1371    0.0000 N.3     1  UNL1        0.2253
      7 C           7.7907   -1.1371    0.0000 C.3     1  UNL1        0.0040
      8 C           8.7369   -2.4418    0.0000 C.3     1  UNL1       -0.0316
      9 C           8.7369   -0.8324    0.0000 C.3     1  UNL1       -0.0008
     10 C           9.3205   -1.6371    0.0000 C.3     1  UNL1       -0.0072
     11 C           6.8396   -2.4461    0.0000 C.3     1  UNL1       -0.0127
     12 C           6.8396   -0.8281    0.0000 C.2     1  UNL1        0.0158
     13 C           6.2519   -1.6371    0.0000 C.2     1  UNL1       -0.0318
     14 C           6.5306    0.1230    0.0000 C.3     1  UNL1        0.1190
     15 C           4.2653    1.4898    0.0000 C.3     1  UNL1        0.1903
     16 C           4.4732    2.4680    0.0000 C.3     1  UNL1       -0.0048
     17 C           5.2435    1.2819    0.0000 C.2     1  UNL1        0.3423
     18 C           3.2872    1.6978    0.0000 C.3     1  UNL1        0.0948
     19 C           3.7301    3.1371    0.0000 C.3     1  UNL1       -0.0594
     20 C           5.4243    2.7770    0.0000 C.3     1  UNL1       -0.0594
     21 C           2.6180    0.9546    0.0000 C.3     1  UNL1       -0.0354
     22 C           2.0000    2.8567    0.0000 C.3     1  UNL1        0.0369
     23 H           7.7918   -0.2871    0.0000 H       1  UNL1        0.0901
     24 H           8.4859   -3.0088    0.0000 H       1  UNL1        0.0814
     25 H           9.2743   -2.7511    0.0000 H       1  UNL1        0.0814
     26 H           9.2743   -0.5232    0.0000 H       1  UNL1        0.0325
     27 H           8.4859   -0.2655    0.0000 H       1  UNL1        0.0325
     28 H           9.7814   -2.0518    0.0000 H       1  UNL1        0.0319
     29 H           9.7814   -1.2224    0.0000 H       1  UNL1        0.0319
     30 H           6.3027   -2.7561    0.0000 H       1  UNL1        0.0861
     31 H           7.0918   -3.0125    0.0000 H       1  UNL1        0.0861
     32 H           5.6319   -1.6371    0.0000 H       1  UNL1        0.0627
     33 H           7.1446    0.2092    0.0000 H       1  UNL1        0.0747
     34 H           6.5523    0.7426    0.0000 H       1  UNL1        0.0747
     35 H           3.8836    2.2764    0.0000 H       1  UNL1        0.0329
     36 H           3.7020    2.1585    0.0000 H       1  UNL1        0.0627
     37 H           4.1449    3.5979    0.0000 H       1  UNL1        0.0233
     38 H           3.2693    3.5520    0.0000 H       1  UNL1        0.0233
     39 H           5.6159    2.1874    0.0000 H       1  UNL1        0.0233
     40 H           6.0139    2.9686    0.0000 H       1  UNL1        0.0233
     41 H           5.2327    3.3667    0.0000 H       1  UNL1        0.0233
     42 H           3.3152    2.6764    0.0000 H       1  UNL1        0.0233
     43 H           2.1573    1.3695    0.0000 H       1  UNL1        0.0256
     44 H           2.2032    0.4939    0.0000 H       1  UNL1        0.0256
     45 H           3.0788    0.5397    0.0000 H       1  UNL1        0.0256
     46 H           3.4678    0.3201    0.0000 H       1  UNL1        0.2110
     47 H           2.1289    3.4632    0.0000 H       1  UNL1        0.0524
     48 H           1.3936    2.9856    0.0000 H       1  UNL1        0.0524
     49 H           1.8711    2.2503    0.0000 H       1  UNL1        0.0524
@<TRIPOS>UNITY_ATOM_ATTR
1 1
charge -1
6 1
charge 1
@<TRIPOS>BOND
     1     1     6    1
     2     2    14    1
     3     2    17    1
     4    15     3    1
     5     3    46    1
     6    18     4    1
     7     4    22    1
     8     5    17    2
     9     6     7    1
    10     6     8    1
    11     6    11    1
    12     7     9    1
    13     7    12    1
    14     7    23    1
    15     8    10    1
    16     8    24    1
    17     8    25    1
    18     9    10    1
    19     9    26    1
    20     9    27    1
    21    10    28    1
    22    10    29    1
    23    11    13    1
    24    11    30    1
    25    11    31    1
    26    12    13    2
    27    12    14    1
    28    13    32    1
    29    14    33    1
    30    14    34    1
    31    15    16    1
    32    15    17    1
    33    15    18    1
    34    16    19    1
    35    16    20    1
    36    16    35    1
    37    18    21    1
    38    18    36    1
    39    19    37    1
    40    19    38    1
    41    19    42    1
    42    20    39    1
    43    20    40    1
    44    20    41    1
    45    21    43    1
    46    21    44    1
    47    21    45    1
    48    22    47    1
    49    22    48    1
    50    22    49    1
