@<TRIPOS>MOLECULE
IMPHY011205
 71 71 0 0 0
SMALL
GASTEIGER

@<TRIPOS>ATOM
      1 O          17.7224    2.0000    0.0000 O.2     1  UNL1       -0.2960
      2 C           3.0000   -1.5000    0.0000 C.3     1  UNL1       -0.0099
      3 C           3.0000   -2.5000    0.0000 C.3     1  UNL1       -0.0436
      4 C           3.8660   -3.0000    0.0000 C.3     1  UNL1       -0.0486
      5 C           3.8660   -1.0000    0.0000 C.2     1  UNL1       -0.0427
      6 C           4.7320   -2.5000    0.0000 C.3     1  UNL1       -0.0314
      7 C           4.7320   -1.5000    0.0000 C.2     1  UNL1       -0.0689
      8 C           2.0000   -1.5000    0.0000 C.3     1  UNL1       -0.0558
      9 C           2.5000   -0.6340    0.0000 C.3     1  UNL1       -0.0558
     10 C           3.8660   -0.0000    0.0000 C.2     1  UNL1       -0.0579
     11 C           5.5981   -1.0000    0.0000 C.3     1  UNL1       -0.0432
     12 C           4.7320    0.5000    0.0000 C.2     1  UNL1       -0.0586
     13 C           4.7320    1.5000    0.0000 C.2     1  UNL1       -0.0504
     14 C           3.8660    2.0000    0.0000 C.3     1  UNL1       -0.0397
     15 C           5.5981    2.0000    0.0000 C.2     1  UNL1       -0.0588
     16 C           6.4641    1.5000    0.0000 C.2     1  UNL1       -0.0613
     17 C           7.3301    2.0000    0.0000 C.2     1  UNL1       -0.0588
     18 C           8.1962    1.5000    0.0000 C.2     1  UNL1       -0.0504
     19 C           8.1962    0.5000    0.0000 C.3     1  UNL1       -0.0397
     20 C           9.0622    2.0000    0.0000 C.2     1  UNL1       -0.0588
     21 C           9.9282    1.5000    0.0000 C.2     1  UNL1       -0.0615
     22 C          10.7942    2.0000    0.0000 C.2     1  UNL1       -0.0615
     23 C          11.6603    1.5000    0.0000 C.2     1  UNL1       -0.0588
     24 C          12.5263    2.0000    0.0000 C.2     1  UNL1       -0.0504
     25 C          13.3923    1.5000    0.0000 C.2     1  UNL1       -0.0588
     26 C          12.5263    3.0000    0.0000 C.3     1  UNL1       -0.0397
     27 C          14.2583    2.0000    0.0000 C.2     1  UNL1       -0.0612
     28 C          15.1244    1.5000    0.0000 C.2     1  UNL1       -0.0558
     29 C          15.9904    2.0000    0.0000 C.2     1  UNL1       -0.0113
     30 C          15.9904    3.0000    0.0000 C.3     1  UNL1       -0.0367
     31 C          16.8564    1.5000    0.0000 C.2     1  UNL1        0.1460
     32 H           2.3894   -2.3923    0.0000 H       1  UNL1        0.0274
     33 H           2.7880   -3.0826    0.0000 H       1  UNL1        0.0274
     34 H           3.4675   -3.4750    0.0000 H       1  UNL1        0.0269
     35 H           4.2646   -3.4750    0.0000 H       1  UNL1        0.0269
     36 H           4.9441   -3.0826    0.0000 H       1  UNL1        0.0310
     37 H           5.3426   -2.3923    0.0000 H       1  UNL1        0.0310
     38 H           3.0369   -0.3240    0.0000 H       1  UNL1        0.0238
     39 H           2.1900   -0.0970    0.0000 H       1  UNL1        0.0238
     40 H           1.9631   -0.9440    0.0000 H       1  UNL1        0.0238
     41 H           2.0000   -0.8800    0.0000 H       1  UNL1        0.0238
     42 H           1.3800   -1.5000    0.0000 H       1  UNL1        0.0238
     43 H           2.0000   -2.1200    0.0000 H       1  UNL1        0.0238
     44 H           3.3291    0.3100    0.0000 H       1  UNL1        0.0621
     45 H           5.9081   -1.5369    0.0000 H       1  UNL1        0.0275
     46 H           6.1350   -0.6900    0.0000 H       1  UNL1        0.0275
     47 H           5.2881   -0.4631    0.0000 H       1  UNL1        0.0275
     48 H           5.2690    0.1900    0.0000 H       1  UNL1        0.0620
     49 H           4.1760    2.5369    0.0000 H       1  UNL1        0.0278
     50 H           3.3291    2.3100    0.0000 H       1  UNL1        0.0278
     51 H           3.5560    1.4631    0.0000 H       1  UNL1        0.0278
     52 H           5.5981    2.6200    0.0000 H       1  UNL1        0.0620
     53 H           6.4641    0.8800    0.0000 H       1  UNL1        0.0618
     54 H           7.3301    2.6200    0.0000 H       1  UNL1        0.0620
     55 H           7.5762    0.5000    0.0000 H       1  UNL1        0.0278
     56 H           8.1962   -0.1200    0.0000 H       1  UNL1        0.0278
     57 H           8.8162    0.5000    0.0000 H       1  UNL1        0.0278
     58 H           9.0622    2.6200    0.0000 H       1  UNL1        0.0620
     59 H           9.9282    0.8800    0.0000 H       1  UNL1        0.0618
     60 H          10.7942    2.6200    0.0000 H       1  UNL1        0.0618
     61 H          11.6603    0.8800    0.0000 H       1  UNL1        0.0620
     62 H          13.3923    0.8800    0.0000 H       1  UNL1        0.0620
     63 H          13.1463    3.0000    0.0000 H       1  UNL1        0.0278
     64 H          12.5263    3.6200    0.0000 H       1  UNL1        0.0278
     65 H          11.9063    3.0000    0.0000 H       1  UNL1        0.0278
     66 H          14.2583    2.6200    0.0000 H       1  UNL1        0.0618
     67 H          15.1244    0.8800    0.0000 H       1  UNL1        0.0621
     68 H          16.6104    3.0000    0.0000 H       1  UNL1        0.0278
     69 H          15.9904    3.6200    0.0000 H       1  UNL1        0.0278
     70 H          15.3704    3.0000    0.0000 H       1  UNL1        0.0278
     71 H          16.8564    0.8800    0.0000 H       1  UNL1        0.1078
@<TRIPOS>BOND
     1     1    31    2
     2     2     3    1
     3     2     5    1
     4     2     8    1
     5     2     9    1
     6     3     4    1
     7     3    32    1
     8     3    33    1
     9     4     6    1
    10     4    34    1
    11     4    35    1
    12     5     7    2
    13     5    10    1
    14     6     7    1
    15     6    36    1
    16     6    37    1
    17     7    11    1
    18     8    41    1
    19     8    42    1
    20     8    43    1
    21     9    38    1
    22     9    39    1
    23     9    40    1
    24    10    12    2
    25    10    44    1
    26    11    45    1
    27    11    46    1
    28    11    47    1
    29    12    13    1
    30    12    48    1
    31    13    14    1
    32    13    15    2
    33    14    49    1
    34    14    50    1
    35    14    51    1
    36    15    16    1
    37    15    52    1
    38    16    17    2
    39    16    53    1
    40    17    18    1
    41    17    54    1
    42    18    19    1
    43    18    20    2
    44    19    55    1
    45    19    56    1
    46    19    57    1
    47    20    21    1
    48    20    58    1
    49    21    22    2
    50    21    59    1
    51    22    23    1
    52    22    60    1
    53    23    24    2
    54    23    61    1
    55    24    25    1
    56    24    26    1
    57    25    27    2
    58    25    62    1
    59    26    63    1
    60    26    64    1
    61    26    65    1
    62    27    28    1
    63    27    66    1
    64    28    29    2
    65    28    67    1
    66    29    30    1
    67    29    31    1
    68    30    68    1
    69    30    69    1
    70    30    70    1
    71    31    71    1
