@<TRIPOS>MOLECULE
IMPHY009791
 27 29 0 0 0
SMALL
GASTEIGER

@<TRIPOS>ATOM
      1 S           5.3781    0.1698    0.0000 S.2     1  UNL1       -0.0872
      2 S           7.4472   -0.5025    0.0000 S.2     1  UNL1       -0.0904
      3 S           3.3090   -0.5025    0.0000 S.2     1  UNL1       -0.0961
      4 O          10.0295   -1.2070    0.0000 O.3     1  UNL1       -0.3899
      5 C           6.1871    0.7575    0.0000 C.ar    1  UNL1        0.0265
      6 C           7.1382    0.4485    0.0000 C.ar    1  UNL1        0.0262
      7 C           4.5691    0.7575    0.0000 C.ar    1  UNL1        0.0265
      8 C           5.8781    1.7086    0.0000 C.ar    1  UNL1       -0.0458
      9 C           8.4472   -0.5025    0.0000 C.ar    1  UNL1        0.0156
     10 C           4.8781    1.7086    0.0000 C.ar    1  UNL1       -0.0458
     11 C           7.9472    1.0363    0.0000 C.ar    1  UNL1       -0.0461
     12 C           3.6180    0.4485    0.0000 C.ar    1  UNL1        0.0259
     13 C           8.7562    0.4485    0.0000 C.ar    1  UNL1       -0.0487
     14 C           9.0350   -1.3115    0.0000 C.3     1  UNL1        0.0754
     15 C           2.8090    1.0363    0.0000 C.ar    1  UNL1       -0.0464
     16 C           2.0000    0.4485    0.0000 C.ar    1  UNL1       -0.0541
     17 C           2.3090   -0.5025    0.0000 C.ar    1  UNL1       -0.0237
     18 H           6.2425    2.2102    0.0000 H       1  UNL1        0.0629
     19 H           4.5137    2.2102    0.0000 H       1  UNL1        0.0629
     20 H           7.9472    1.6563    0.0000 H       1  UNL1        0.0629
     21 H           9.3459    0.6401    0.0000 H       1  UNL1        0.0627
     22 H           8.4777   -1.5833    0.0000 H       1  UNL1        0.0612
     23 H           9.2059   -1.9075    0.0000 H       1  UNL1        0.0612
     24 H           2.8090    1.6563    0.0000 H       1  UNL1        0.0629
     25 H           1.4103    0.6401    0.0000 H       1  UNL1        0.0623
     26 H           1.9446   -1.0041    0.0000 H       1  UNL1        0.0693
     27 H          10.3939   -1.7086    0.0000 H       1  UNL1        0.2099
@<TRIPOS>BOND
     1     1     5   ar
     2     1     7   ar
     3     2     6   ar
     4     2     9   ar
     5     3    12   ar
     6     3    17   ar
     7     4    14    1
     8     4    27    1
     9     5     6    1
    10     5     8   ar
    11     6    11   ar
    12     7    10   ar
    13     7    12    1
    14     8    10   ar
    15     8    18    1
    16     9    13   ar
    17     9    14    1
    18    10    19    1
    19    11    13   ar
    20    11    20    1
    21    12    15   ar
    22    13    21    1
    23    14    22    1
    24    14    23    1
    25    15    16   ar
    26    15    24    1
    27    16    17   ar
    28    16    25    1
    29    17    26    1
