@<TRIPOS>MOLECULE
IMPHY004124
 50 53 0 0 0
SMALL
GASTEIGER

@<TRIPOS>ATOM
      1 O           6.3740   -0.8072    0.0000 O.3     1  UNL1       -0.4732
      2 O           6.3740    1.2621    0.0000 O.3     1  UNL1       -0.4754
      3 O           4.6077    2.2516    0.0000 O.3     1  UNL1       -0.3912
      4 O           8.1179    2.2689    0.0000 O.2     1  UNL1       -0.4183
      5 O           8.1340   -1.7726    0.0000 O.3     1  UNL1       -0.4913
      6 O           3.7475   -3.3000    0.0000 O.3     1  UNL1       -0.4913
      7 O           2.0038   -0.3067    0.0000 O.3     1  UNL1       -0.4913
      8 O           2.0116   -2.3067    0.0000 O.3     1  UNL1       -0.5009
      9 O           9.0121    3.7967    0.0000 O.2     1  UNL1       -0.2452
     10 C           5.4679   -0.2934    0.0000 C.3     1  UNL1        0.1645
     11 C           5.4679    0.7483    0.0000 C.3     1  UNL1        0.1641
     12 C           4.6038   -0.7967    0.0000 C.ar    1  UNL1        0.0034
     13 C           7.2679    0.7274    0.0000 C.ar    1  UNL1        0.2093
     14 C           7.2679   -0.2726    0.0000 C.ar    1  UNL1        0.2083
     15 C           4.6038    1.2516    0.0000 C.3     1  UNL1        0.0850
     16 C           8.1340    1.2274    0.0000 C.ar    1  UNL1        0.1844
     17 C           8.1340   -0.7726    0.0000 C.ar    1  UNL1        0.1660
     18 C           3.7359   -0.3001    0.0000 C.ar    1  UNL1       -0.0093
     19 C           4.6077   -1.7967    0.0000 C.ar    1  UNL1       -0.0093
     20 C           9.0000    0.7274    0.0000 C.ar    1  UNL1        0.0250
     21 C           9.0000   -0.2726    0.0000 C.ar    1  UNL1       -0.0054
     22 C           3.7436   -2.3000    0.0000 C.ar    1  UNL1        0.1654
     23 C           2.8718   -0.8034    0.0000 C.ar    1  UNL1        0.1654
     24 C           2.8757   -1.8034    0.0000 C.ar    1  UNL1        0.2010
     25 C           9.9100    1.2343    0.0000 C.ar    1  UNL1       -0.0441
     26 C           9.9180    2.2759    0.0000 C.ar    1  UNL1        0.0236
     27 C           9.0159    2.7967    0.0000 C.ar    1  UNL1        0.3373
     28 C           9.0000   -2.2726    0.0000 C.3     1  UNL1        0.0790
     29 C           4.6154   -3.7967    0.0000 C.3     1  UNL1        0.0790
     30 C           2.0000    0.6933    0.0000 C.3     1  UNL1        0.0790
     31 H           5.4715   -0.9134    0.0000 H       1  UNL1        0.0823
     32 H           5.4715    1.3682    0.0000 H       1  UNL1        0.0798
     33 H           3.9937    1.3616    0.0000 H       1  UNL1        0.0595
     34 H           4.3895    0.6698    0.0000 H       1  UNL1        0.0595
     35 H           3.7335    0.3199    0.0000 H       1  UNL1        0.0659
     36 H           5.1458   -2.1046    0.0000 H       1  UNL1        0.0659
     37 H           9.5369   -0.5826    0.0000 H       1  UNL1        0.0662
     38 H          10.4433    0.9181    0.0000 H       1  UNL1        0.0627
     39 H           4.0720    2.5636    0.0000 H       1  UNL1        0.2096
     40 H          10.4561    2.5838    0.0000 H       1  UNL1        0.0689
     41 H           8.6900   -2.8095    0.0000 H       1  UNL1        0.0660
     42 H           9.5369   -2.5826    0.0000 H       1  UNL1        0.0660
     43 H           9.3100   -1.7356    0.0000 H       1  UNL1        0.0660
     44 H           2.0140   -2.9267    0.0000 H       1  UNL1        0.2924
     45 H           4.3075   -4.3348    0.0000 H       1  UNL1        0.0660
     46 H           5.1535   -4.1046    0.0000 H       1  UNL1        0.0660
     47 H           4.9233   -3.2586    0.0000 H       1  UNL1        0.0660
     48 H           2.6200    0.6957    0.0000 H       1  UNL1        0.0660
     49 H           1.9976    1.3133    0.0000 H       1  UNL1        0.0660
     50 H           1.3800    0.6909    0.0000 H       1  UNL1        0.0660
@<TRIPOS>BOND
     1     1    10    1
     2     1    14    1
     3     2    11    1
     4     2    13    1
     5     3    15    1
     6     3    39    1
     7     4    16   ar
     8     4    27   ar
     9     5    17    1
    10     5    28    1
    11     6    22    1
    12     6    29    1
    13     7    23    1
    14     7    30    1
    15     8    24    1
    16     8    44    1
    17     9    27    2
    18    10    11    1
    19    10    12    1
    20    10    31    1
    21    11    15    1
    22    11    32    1
    23    12    18   ar
    24    12    19   ar
    25    13    14   ar
    26    13    16   ar
    27    14    17   ar
    28    15    33    1
    29    15    34    1
    30    16    20   ar
    31    17    21   ar
    32    18    23   ar
    33    18    35    1
    34    19    22   ar
    35    19    36    1
    36    20    21   ar
    37    20    25   ar
    38    21    37    1
    39    22    24   ar
    40    23    24   ar
    41    25    26   ar
    42    25    38    1
    43    26    27   ar
    44    26    40    1
    45    28    41    1
    46    28    42    1
    47    28    43    1
    48    29    45    1
    49    29    46    1
    50    29    47    1
    51    30    48    1
    52    30    49    1
    53    30    50    1
