@<TRIPOS>MOLECULE
IMPHY008853
 10 11 0 0 0
SMALL
GASTEIGER

@<TRIPOS>ATOM
      1 O           6.5640   -2.2197    0.0000 O.2     1  UNL1       -0.2961
      2 C           4.2321   -0.5949    0.0000 C.3     1  UNL1        0.0515
      3 C           3.7543    1.3537    0.0000 C.3     1  UNL1        0.0069
      4 C           4.4909    0.3711    0.0000 C.3     1  UNL1        0.0077
      5 C           2.5000   -1.5949    0.0000 C.3     1  UNL1        0.0069
      6 C           2.0000   -0.7288    0.0000 C.3     1  UNL1        0.0009
      7 C           6.3228   -0.3878    0.0000 C.3     1  UNL1        0.0645
      8 C           6.0640   -1.3537    0.0000 C.2     1  UNL1        0.1498
      9 C           3.9732   -1.5608    0.0000 C.3     1  UNL1        0.0073
     10 C           3.2543    2.2197    0.0000 C.3     1  UNL1        0.0004
@<TRIPOS>BOND
     1     1     8    2
     2     2     3    1
     3     2     5    1
     4     2     8    1
     5     2     9    1
     6     3     4    1
     7     3    10    1
     8     4     6    1
     9     4     7    1
    10     5     6    1
    11     7     8    1
