@<TRIPOS>MOLECULE
IMPHY008757
 44 46 0 0 0
SMALL
GASTEIGER

@<TRIPOS>ATOM
      1 O           5.5301   -0.0121    0.0000 O.2     1  UNL1       -0.4545
      2 O           9.8602    0.4879    0.0000 O.3     1  UNL1       -0.4913
      3 O           8.1282   -2.5121    0.0000 O.3     1  UNL1       -0.4913
      4 O           9.8602   -1.5121    0.0000 O.3     1  UNL1       -0.4885
      5 O           2.0000    2.0121    0.0000 O.3     1  UNL1       -0.4914
      6 O           5.5301    2.9879    0.0000 O.2     1  UNL1       -0.2870
      7 O           2.0000   -0.0362    0.0000 O.3     1  UNL1       -0.5032
      8 C           7.2622   -0.0121    0.0000 C.ar    1  UNL1        0.0245
      9 C           6.3961    0.4879    0.0000 C.ar    1  UNL1        0.1395
     10 C           4.6641    1.4879    0.0000 C.ar    1  UNL1        0.0677
     11 C           4.6641    0.4879    0.0000 C.ar    1  UNL1        0.1429
     12 C           6.3961    1.4879    0.0000 C.ar    1  UNL1        0.0287
     13 C           5.5301    1.9879    0.0000 C.ar    1  UNL1        0.1932
     14 C           7.2622   -1.0121    0.0000 C.ar    1  UNL1       -0.0054
     15 C           8.1282    0.4879    0.0000 C.ar    1  UNL1       -0.0054
     16 C           3.7702    2.0226    0.0000 C.ar    1  UNL1       -0.0020
     17 C           8.9942   -0.0121    0.0000 C.ar    1  UNL1        0.1658
     18 C           8.1282   -1.5121    0.0000 C.ar    1  UNL1        0.1658
     19 C           8.9942   -1.0121    0.0000 C.ar    1  UNL1        0.2035
     20 C           3.7702   -0.0467    0.0000 C.ar    1  UNL1        0.0265
     21 C           2.8641    1.5087    0.0000 C.ar    1  UNL1        0.1622
     22 C           2.8641    0.4671    0.0000 C.ar    1  UNL1        0.1620
     23 C           9.8602    1.4879    0.0000 C.3     1  UNL1        0.0790
     24 C           7.2622   -3.0121    0.0000 C.3     1  UNL1        0.0790
     25 C          10.7263   -1.0121    0.0000 C.3     1  UNL1        0.0791
     26 C           2.0038    3.0121    0.0000 C.3     1  UNL1        0.0790
     27 H           6.9331    1.7979    0.0000 H       1  UNL1        0.0693
     28 H           6.7252   -1.3221    0.0000 H       1  UNL1        0.0662
     29 H           8.1282    1.1079    0.0000 H       1  UNL1        0.0662
     30 H           3.7773    2.6426    0.0000 H       1  UNL1        0.0663
     31 H           3.7773   -0.6667    0.0000 H       1  UNL1        0.0692
     32 H           2.0024   -0.6562    0.0000 H       1  UNL1        0.2923
     33 H          10.4803    1.4879    0.0000 H       1  UNL1        0.0660
     34 H           9.8602    2.1079    0.0000 H       1  UNL1        0.0660
     35 H           9.2402    1.4879    0.0000 H       1  UNL1        0.0660
     36 H           6.9522   -2.4751    0.0000 H       1  UNL1        0.0660
     37 H           6.7252   -3.3221    0.0000 H       1  UNL1        0.0660
     38 H           7.5722   -3.5490    0.0000 H       1  UNL1        0.0660
     39 H          11.0363   -1.5490    0.0000 H       1  UNL1        0.0660
     40 H          11.2632   -0.7021    0.0000 H       1  UNL1        0.0660
     41 H          10.4163   -0.4751    0.0000 H       1  UNL1        0.0660
     42 H           2.6238    3.0097    0.0000 H       1  UNL1        0.0660
     43 H           2.0062    3.6321    0.0000 H       1  UNL1        0.0660
     44 H           1.3839    3.0145    0.0000 H       1  UNL1        0.0660
@<TRIPOS>BOND
     1     1     9   ar
     2     1    11   ar
     3     2    17    1
     4     2    23    1
     5     3    18    1
     6     3    24    1
     7     4    19    1
     8     4    25    1
     9     5    21    1
    10     5    26    1
    11     6    13    2
    12     7    22    1
    13     7    32    1
    14     8     9    1
    15     8    14   ar
    16     8    15   ar
    17     9    12   ar
    18    10    11   ar
    19    10    13   ar
    20    10    16   ar
    21    11    20   ar
    22    12    13   ar
    23    12    27    1
    24    14    18   ar
    25    14    28    1
    26    15    17   ar
    27    15    29    1
    28    16    21   ar
    29    16    30    1
    30    17    19   ar
    31    18    19   ar
    32    20    22   ar
    33    20    31    1
    34    21    22   ar
    35    23    33    1
    36    23    34    1
    37    23    35    1
    38    24    36    1
    39    24    37    1
    40    24    38    1
    41    25    39    1
    42    25    40    1
    43    25    41    1
    44    26    42    1
    45    26    43    1
    46    26    44    1
