@<TRIPOS>MOLECULE
IMPHY008057
 44 45 0 0 0
SMALL
GASTEIGER

@<TRIPOS>ATOM
      1 O           4.2690   -3.5950    0.0000 O.3     1  UNL1       -0.5064
      2 O           2.5369   -0.5950    0.0000 O.3     1  UNL1       -0.5064
      3 C           5.1350   -2.0950    0.0000 C.ar    1  UNL1       -0.0017
      4 C           4.2690   -0.5950    0.0000 C.ar    1  UNL1       -0.0017
      5 C           6.0010   -2.5950    0.0000 C.3     1  UNL1       -0.0058
      6 C           5.1350   -1.0950    0.0000 C.ar    1  UNL1       -0.0479
      7 C           4.2690    0.4050    0.0000 C.3     1  UNL1       -0.0057
      8 C           4.2690   -2.5950    0.0000 C.ar    1  UNL1        0.1238
      9 C           3.4030   -1.0950    0.0000 C.ar    1  UNL1        0.1238
     10 C           3.4030   -2.0950    0.0000 C.ar    1  UNL1        0.0219
     11 C           6.8671   -2.0950    0.0000 C.2     1  UNL1       -0.0809
     12 C           5.1350    0.9050    0.0000 C.2     1  UNL1       -0.0790
     13 C           7.7331   -2.5950    0.0000 C.2     1  UNL1       -0.0793
     14 C           5.1350    1.9050    0.0000 C.2     1  UNL1       -0.0582
     15 C           6.0010    2.4050    0.0000 C.ar    1  UNL1       -0.0253
     16 C           8.5991   -2.0950    0.0000 C.3     1  UNL1       -0.0440
     17 C           7.7331   -3.5950    0.0000 C.3     1  UNL1       -0.0440
     18 C           6.8671    1.9050    0.0000 C.ar    1  UNL1       -0.0546
     19 C           6.0010    3.4050    0.0000 C.ar    1  UNL1       -0.0546
     20 C           7.7331    2.4050    0.0000 C.ar    1  UNL1       -0.0612
     21 C           6.8671    3.9050    0.0000 C.ar    1  UNL1       -0.0612
     22 C           7.7331    3.4050    0.0000 C.ar    1  UNL1       -0.0617
     23 H           5.6025   -3.0700    0.0000 H       1  UNL1        0.0357
     24 H           6.3996   -3.0700    0.0000 H       1  UNL1        0.0357
     25 H           5.6720   -0.7850    0.0000 H       1  UNL1        0.0625
     26 H           4.0569    0.9876    0.0000 H       1  UNL1        0.0357
     27 H           3.6584    0.2973    0.0000 H       1  UNL1        0.0357
     28 H           2.8660   -2.4050    0.0000 H       1  UNL1        0.0691
     29 H           6.8671   -1.4750    0.0000 H       1  UNL1        0.0575
     30 H           5.6720    0.5950    0.0000 H       1  UNL1        0.0575
     31 H           4.5981    2.2150    0.0000 H       1  UNL1        0.0620
     32 H           8.9091   -2.6319    0.0000 H       1  UNL1        0.0274
     33 H           7.1131   -3.5950    0.0000 H       1  UNL1        0.0274
     34 H           7.7331   -4.2150    0.0000 H       1  UNL1        0.0274
     35 H           8.3531   -3.5950    0.0000 H       1  UNL1        0.0274
     36 H           9.1360   -1.7850    0.0000 H       1  UNL1        0.0274
     37 H           8.2891   -1.5581    0.0000 H       1  UNL1        0.0274
     38 H           3.7320   -3.9050    0.0000 H       1  UNL1        0.2921
     39 H           2.0000   -0.9050    0.0000 H       1  UNL1        0.2921
     40 H           6.8671    1.2850    0.0000 H       1  UNL1        0.0623
     41 H           5.4641    3.7150    0.0000 H       1  UNL1        0.0623
     42 H           8.2700    2.0950    0.0000 H       1  UNL1        0.0618
     43 H           6.8671    4.5250    0.0000 H       1  UNL1        0.0618
     44 H           8.2700    3.7150    0.0000 H       1  UNL1        0.0618
@<TRIPOS>BOND
     1     1     8    1
     2     1    38    1
     3     2     9    1
     4     2    39    1
     5     3     5    1
     6     3     6   ar
     7     3     8   ar
     8     4     6   ar
     9     4     7    1
    10     4     9   ar
    11     5    11    1
    12     5    23    1
    13     5    24    1
    14     6    25    1
    15     7    12    1
    16     7    26    1
    17     7    27    1
    18     8    10   ar
    19     9    10   ar
    20    10    28    1
    21    11    13    2
    22    11    29    1
    23    12    14    2
    24    12    30    1
    25    13    16    1
    26    13    17    1
    27    14    15    1
    28    14    31    1
    29    15    18   ar
    30    15    19   ar
    31    16    32    1
    32    16    36    1
    33    16    37    1
    34    17    33    1
    35    17    34    1
    36    17    35    1
    37    18    20   ar
    38    18    40    1
    39    19    21   ar
    40    19    41    1
    41    20    22   ar
    42    20    42    1
    43    21    22   ar
    44    21    43    1
    45    22    44    1
