@<TRIPOS>MOLECULE
IMPHY006440
 70 74 0 0 0
SMALL
GASTEIGER

@<TRIPOS>ATOM
      1 O          10.8006    2.5450    0.0000 O.3     1  UNL1       -0.4914
      2 O          12.5745    1.5209    0.0000 O.3     1  UNL1       -0.4914
      3 O           2.8660    0.9894    0.0000 O.2     1  UNL1       -0.4913
      4 O           2.8739    3.0377    0.0000 O.2     1  UNL1       -0.2840
      5 N           9.0565   -1.5242    0.0000 N.3     1  UNL1       -0.2948
      6 N           7.2642    1.4966    0.0000 N.pl3   1  UNL1       -0.3463
      7 C           7.2565   -0.5034    0.0000 C.3     1  UNL1       -0.0302
      8 C           7.2565   -1.5450    0.0000 C.3     1  UNL1       -0.0253
      9 C           9.0565   -0.5242    0.0000 C.3     1  UNL1        0.0363
     10 C           8.1625    0.0104    0.0000 C.3     1  UNL1       -0.0297
     11 C           8.1625   -2.0589    0.0000 C.3     1  UNL1        0.0026
     12 C           6.3924   -0.0001    0.0000 C.3     1  UNL1       -0.0111
     13 C           9.9225   -2.0242    0.0000 C.3     1  UNL1        0.0035
     14 C           9.9225   -0.0242    0.0000 C.ar    1  UNL1       -0.0234
     15 C           6.3924   -2.0484    0.0000 C.3     1  UNL1       -0.0516
     16 C          10.7885   -1.5242    0.0000 C.3     1  UNL1       -0.0144
     17 C          10.7885   -0.5242    0.0000 C.ar    1  UNL1       -0.0378
     18 C           6.3962    0.9999    0.0000 C.2     1  UNL1        0.0118
     19 C           9.9064    1.0173    0.0000 C.ar    1  UNL1       -0.0114
     20 C           6.3962   -3.0484    0.0000 C.3     1  UNL1       -0.0650
     21 C          11.6985   -0.0174    0.0000 C.ar    1  UNL1       -0.0128
     22 C           5.5321    1.5032    0.0000 C.2     1  UNL1       -0.0014
     23 C          10.8045    1.5450    0.0000 C.ar    1  UNL1        0.1618
     24 C          11.7065    1.0242    0.0000 C.ar    1  UNL1        0.1618
     25 C           7.2680    2.4966    0.0000 C.3     1  UNL1        0.0129
     26 C           5.5360    2.5032    0.0000 C.2     1  UNL1       -0.0335
     27 C           6.4039    2.9999    0.0000 C.3     1  UNL1       -0.0114
     28 C           4.6361    0.9720    0.0000 C.2     1  UNL1       -0.0073
     29 C           4.6441    3.0414    0.0000 C.2     1  UNL1       -0.0074
     30 C           3.7320    1.4894    0.0000 C.2     1  UNL1        0.1671
     31 C           3.7361    2.5310    0.0000 C.2     1  UNL1        0.2205
     32 C          11.6647    3.0484    0.0000 C.3     1  UNL1        0.0790
     33 C          13.4386    1.0176    0.0000 C.3     1  UNL1        0.0790
     34 C           2.0000    1.4894    0.0000 C.3     1  UNL1        0.0790
     35 H           7.2600    0.1166    0.0000 H       1  UNL1        0.0308
     36 H           6.7189   -1.2361    0.0000 H       1  UNL1        0.0316
     37 H           9.0630    0.3258    0.0000 H       1  UNL1        0.0512
     38 H           8.5671    0.4802    0.0000 H       1  UNL1        0.0286
     39 H           7.7689    0.4895    0.0000 H       1  UNL1        0.0286
     40 H           7.7689   -2.5379    0.0000 H       1  UNL1        0.0429
     41 H           8.5671   -2.5287    0.0000 H       1  UNL1        0.0429
     42 H           5.7822    0.1099    0.0000 H       1  UNL1        0.0328
     43 H           6.1781   -0.5819    0.0000 H       1  UNL1        0.0328
     44 H           9.5240   -2.4992    0.0000 H       1  UNL1        0.0430
     45 H          10.3210   -2.4992    0.0000 H       1  UNL1        0.0430
     46 H           6.1781   -1.4666    0.0000 H       1  UNL1        0.0266
     47 H           5.7822   -2.1584    0.0000 H       1  UNL1        0.0266
     48 H          11.0006   -2.1068    0.0000 H       1  UNL1        0.0326
     49 H          11.3991   -1.4166    0.0000 H       1  UNL1        0.0326
     50 H           9.3660    1.3210    0.0000 H       1  UNL1        0.0659
     51 H           5.7762   -3.0508    0.0000 H       1  UNL1        0.0230
     52 H           6.3986   -3.6684    0.0000 H       1  UNL1        0.0230
     53 H           7.0162   -3.0460    0.0000 H       1  UNL1        0.0230
     54 H          12.2318   -0.3336    0.0000 H       1  UNL1        0.0658
     55 H           7.7999    1.1845    0.0000 H       1  UNL1        0.1458
     56 H           7.8782    2.3866    0.0000 H       1  UNL1        0.0464
     57 H           7.4823    3.0784    0.0000 H       1  UNL1        0.0464
     58 H           6.8043    3.4733    0.0000 H       1  UNL1        0.0328
     59 H           6.0072    3.4764    0.0000 H       1  UNL1        0.0328
     60 H           4.6409    0.3521    0.0000 H       1  UNL1        0.0662
     61 H           4.6537    3.6613    0.0000 H       1  UNL1        0.0660
     62 H          11.9768    2.5126    0.0000 H       1  UNL1        0.0660
     63 H          12.2004    3.3604    0.0000 H       1  UNL1        0.0660
     64 H          11.3526    3.5841    0.0000 H       1  UNL1        0.0660
     65 H          13.1265    0.4818    0.0000 H       1  UNL1        0.0660
     66 H          13.9743    0.7055    0.0000 H       1  UNL1        0.0660
     67 H          13.7507    1.5533    0.0000 H       1  UNL1        0.0660
     68 H           2.3100    2.0263    0.0000 H       1  UNL1        0.0660
     69 H           1.4631    1.7994    0.0000 H       1  UNL1        0.0660
     70 H           1.6900    0.9524    0.0000 H       1  UNL1        0.0660
@<TRIPOS>BOND
     1     1    23    1
     2     1    32    1
     3     2    24    1
     4     2    33    1
     5     3    30    1
     6     3    34    1
     7     4    31    2
     8     5     9    1
     9     5    11    1
    10     5    13    1
    11     6    18    1
    12     6    25    1
    13     6    55    1
    14     7     8    1
    15     7    10    1
    16     7    12    1
    17     7    35    1
    18     8    11    1
    19     8    15    1
    20     8    36    1
    21     9    10    1
    22     9    14    1
    23     9    37    1
    24    10    38    1
    25    10    39    1
    26    11    40    1
    27    11    41    1
    28    12    18    1
    29    12    42    1
    30    12    43    1
    31    13    16    1
    32    13    44    1
    33    13    45    1
    34    14    17   ar
    35    14    19   ar
    36    15    20    1
    37    15    46    1
    38    15    47    1
    39    16    17    1
    40    16    48    1
    41    16    49    1
    42    17    21   ar
    43    18    22    2
    44    19    23   ar
    45    19    50    1
    46    20    51    1
    47    20    52    1
    48    20    53    1
    49    21    24   ar
    50    21    54    1
    51    22    26    1
    52    22    28    1
    53    23    24   ar
    54    25    27    1
    55    25    56    1
    56    25    57    1
    57    26    27    1
    58    26    29    2
    59    27    58    1
    60    27    59    1
    61    28    30    2
    62    28    60    1
    63    29    31    1
    64    29    61    1
    65    30    31    1
    66    32    62    1
    67    32    63    1
    68    32    64    1
    69    33    65    1
    70    33    66    1
    71    33    67    1
    72    34    68    1
    73    34    69    1
    74    34    70    1
