@<TRIPOS>MOLECULE
IMPHY006624
 46 50 0 0 0
SMALL
GASTEIGER

@<TRIPOS>ATOM
      1 O           8.3892    0.2819    0.0000 O.3     1  UNL1       -0.3712
      2 O           6.1087   -1.7714    0.0000 O.3     1  UNL1       -0.3712
      3 O          12.0380   -0.9079    0.0000 O.3     1  UNL1       -0.4526
      4 O          12.0380   -2.5173    0.0000 O.3     1  UNL1       -0.4526
      5 O           4.2667    2.2141    0.0000 O.3     1  UNL1       -0.4914
      6 O           2.5364    1.2111    0.0000 O.3     1  UNL1       -0.5033
      7 C           7.5802   -1.1194    0.0000 C.3     1  UNL1        0.0205
      8 C           6.9110   -0.3762    0.0000 C.3     1  UNL1        0.0205
      9 C           8.4937   -0.7126    0.0000 C.3     1  UNL1        0.0891
     10 C           6.0040   -0.7829    0.0000 C.3     1  UNL1        0.0891
     11 C           7.4110    0.4898    0.0000 C.3     1  UNL1        0.0544
     12 C           7.0809   -1.9790    0.0000 C.3     1  UNL1        0.0544
     13 C           9.3597   -1.2126    0.0000 C.ar    1  UNL1       -0.0149
     14 C           5.1371   -0.2844    0.0000 C.ar    1  UNL1       -0.0149
     15 C          10.2258   -0.7126    0.0000 C.ar    1  UNL1       -0.0105
     16 C           9.3597   -2.2126    0.0000 C.ar    1  UNL1       -0.0524
     17 C           5.1353    0.7156    0.0000 C.ar    1  UNL1       -0.0107
     18 C           4.2719   -0.7859    0.0000 C.ar    1  UNL1       -0.0524
     19 C          11.0918   -1.2126    0.0000 C.ar    1  UNL1        0.1666
     20 C          10.2258   -2.7126    0.0000 C.ar    1  UNL1       -0.0158
     21 C           4.2684    1.2141    0.0000 C.ar    1  UNL1        0.1616
     22 C          11.0918   -2.2126    0.0000 C.ar    1  UNL1        0.1662
     23 C           3.4050   -0.2874    0.0000 C.ar    1  UNL1       -0.0162
     24 C           3.4033    0.7126    0.0000 C.ar    1  UNL1        0.1585
     25 C          12.6216   -1.7126    0.0000 C.3     1  UNL1        0.2332
     26 C           3.3998    2.7126    0.0000 C.3     1  UNL1        0.0790
     27 H           8.1481   -1.7518    0.0000 H       1  UNL1        0.0356
     28 H           6.3415    0.2547    0.0000 H       1  UNL1        0.0356
     29 H           9.0137   -0.3749    0.0000 H       1  UNL1        0.0650
     30 H           5.4844   -1.1212    0.0000 H       1  UNL1        0.0650
     31 H           7.6026    1.0795    0.0000 H       1  UNL1        0.0564
     32 H           6.8446    0.7420    0.0000 H       1  UNL1        0.0564
     33 H           6.8885   -2.5683    0.0000 H       1  UNL1        0.0564
     34 H           7.6468   -2.2323    0.0000 H       1  UNL1        0.0564
     35 H          10.2258   -0.0926    0.0000 H       1  UNL1        0.0659
     36 H           8.8228   -2.5226    0.0000 H       1  UNL1        0.0622
     37 H           5.6717    1.0265    0.0000 H       1  UNL1        0.0659
     38 H           4.2730   -1.4059    0.0000 H       1  UNL1        0.0622
     39 H          10.2258   -3.3326    0.0000 H       1  UNL1        0.0655
     40 H           2.8686   -0.5983    0.0000 H       1  UNL1        0.0655
     41 H          13.0825   -2.1273    0.0000 H       1  UNL1        0.1166
     42 H          13.0825   -1.2979    0.0000 H       1  UNL1        0.1166
     43 H           2.0000    0.9002    0.0000 H       1  UNL1        0.2923
     44 H           3.7089    3.2501    0.0000 H       1  UNL1        0.0660
     45 H           2.8624    3.0217    0.0000 H       1  UNL1        0.0660
     46 H           3.0908    2.1751    0.0000 H       1  UNL1        0.0660
@<TRIPOS>BOND
     1     1     9    1
     2     1    11    1
     3     2    10    1
     4     2    12    1
     5     3    19    1
     6     3    25    1
     7     4    22    1
     8     4    25    1
     9     5    21    1
    10     5    26    1
    11     6    24    1
    12     6    43    1
    13     7     8    1
    14     7     9    1
    15     7    12    1
    16     7    27    1
    17     8    10    1
    18     8    11    1
    19     8    28    1
    20     9    13    1
    21     9    29    1
    22    10    14    1
    23    10    30    1
    24    11    31    1
    25    11    32    1
    26    12    33    1
    27    12    34    1
    28    13    15   ar
    29    13    16   ar
    30    14    17   ar
    31    14    18   ar
    32    15    19   ar
    33    15    35    1
    34    16    20   ar
    35    16    36    1
    36    17    21   ar
    37    17    37    1
    38    18    23   ar
    39    18    38    1
    40    19    22   ar
    41    20    22   ar
    42    20    39    1
    43    21    24   ar
    44    23    24   ar
    45    23    40    1
    46    25    41    1
    47    25    42    1
    48    26    44    1
    49    26    45    1
    50    26    46    1
