@<TRIPOS>MOLECULE
IMPHY002322
 28 31 0 0 0
SMALL
GASTEIGER

@<TRIPOS>ATOM
      1 C        2448.0900 2479.9000    0.0000 C.3     1  UNL1        0.2122
      2 O        2413.5500 2499.9500    0.0000 O.3     1  UNL1       -0.4481
      3 C        2413.5500 2539.9500    0.0000 C.2     1  UNL1        0.3176
      4 C        2378.9100 2559.9000    0.0000 C.3     1  UNL1        0.1212
      5 O        2448.0900 2559.9000    0.0000 O.2     1  UNL1       -0.2501
      6 C        2448.0900 2439.9000    0.0000 C.3     1  UNL1        0.0601
      7 C        2482.6300 2460.0500    0.0000 C.3     1  UNL1        0.0113
      8 C        2517.2700 2439.9000    0.0000 C.3     1  UNL1        0.0225
      9 C        2551.8100 2460.0500    0.0000 C.3     1  UNL1        0.0075
     10 C        2551.8100 2500.4500    0.0000 C.3     1  UNL1        0.0372
     11 C        2517.2700 2520.6000    0.0000 C.3     1  UNL1        0.0035
     12 C        2482.6300 2500.4500    0.0000 C.3     1  UNL1        0.0009
     13 C        2551.8100 2540.4500    0.0000 C.3     1  UNL1        0.0036
     14 C        2586.3500 2520.6000    0.0000 C.3     1  UNL1        0.1686
     15 C        2620.8900 2500.4500    0.0000 C.3     1  UNL1        0.0436
     16 C        2620.8900 2460.0500    0.0000 C.3     1  UNL1        0.0041
     17 O        2586.3500 2560.6000    0.0000 O.3     1  UNL1       -0.4523
     18 C        2620.9900 2580.5500    0.0000 C.2     1  UNL1        0.3174
     19 C        2655.6300 2560.6000    0.0000 C.3     1  UNL1        0.1212
     20 O        2620.9900 2620.5500    0.0000 O.2     1  UNL1       -0.2501
     21 C        2517.2700 2399.6000    0.0000 C.2     1  UNL1       -0.0268
     22 C        2482.6300 2379.4500    0.0000 C.2     1  UNL1       -0.0087
     23 C        2448.0900 2399.6000    0.0000 C.2     1  UNL1       -0.0168
     24 C        2413.5500 2379.4500    0.0000 C.2     1  UNL1        0.0333
     25 C        2379.0100 2399.6000    0.0000 C.2     1  UNL1        0.1728
     26 C        2379.0100 2439.9000    0.0000 C.3     1  UNL1        0.0696
     27 C        2413.5500 2460.0500    0.0000 C.3     1  UNL1        0.0158
     28 O        2344.3700 2379.6500    0.0000 O.2     1  UNL1       -0.2913
@<TRIPOS>BOND
     1     1     2    1
     2     2     3    1
     3     3     4    1
     4     3     5    2
     5     6     1    1
     6     6     7    1
     7     6    23    1
     8     6    27    1
     9     7     8    1
    10     7    12    1
    11     8     9    1
    12     8    21    1
    13     9    10    1
    14     9    16    1
    15    10    13    1
    16    10    14    1
    17    11    10    1
    18    12    11    1
    19    14    15    1
    20    14    17    1
    21    16    15    1
    22    17    18    1
    23    18    19    1
    24    18    20    2
    25    22    21    2
    26    23    22    1
    27    23    24    2
    28    24    25    1
    29    25    28    2
    30    26    25    1
    31    27    26    1
