@<TRIPOS>MOLECULE
IMPHY017957
 21 23 0 0 0
SMALL
GASTEIGER

@<TRIPOS>ATOM
      1 C           4.3095   -0.9103    0.0000 C.3     1  UNL1        0.3475
      2 C           5.6116   -1.8552    0.0000 C.3     1  UNL1        0.0873
      3 C           5.1104   -3.3819    0.0000 C.3     1  UNL1       -0.0118
      4 C           3.5087   -3.3819    0.0000 C.3     1  UNL1       -0.0000
      5 C           3.5087   -4.8742    0.0000 C.3     1  UNL1       -0.0007
      6 C           2.2181   -5.6289    0.0000 C.3     1  UNL1       -0.0042
      7 C           0.9161   -4.8742    0.0000 C.3     1  UNL1       -0.0225
      8 C           0.9103   -3.3762    0.0000 C.3     1  UNL1       -0.0225
      9 C           1.4115   -1.8552    0.0000 C.3     1  UNL1       -0.0002
     10 C           3.0132   -1.8552    0.0000 C.3     1  UNL1        0.0583
     11 H           2.7194   -0.8354    0.0000 H       1  UNL1        0.0391
     12 C           0.4379   -1.4404    0.0000 C.3     1  UNL1       -0.0004
     13 C           1.5786   -0.8124    0.0000 C.3     1  UNL1       -0.0004
     14 C           2.2124   -4.3211    0.0000 C.3     1  UNL1       -0.0046
     15 H           0.0000   -3.4857    0.0000 H       1  UNL1        0.0316
     16 C           0.0173   -5.4330    0.0000 C.3     1  UNL1       -0.0045
     17 H           0.1152   -4.4305    0.0000 H       1  UNL1        0.0316
     18 C           5.7614   -4.2174    0.0000 C.3     1  UNL1       -0.0040
     19 H           4.7071   -4.2058    0.0000 H       1  UNL1        0.0321
     20 O           4.8569    0.0000    0.0000 O.2     1  UNL1       -0.2758
     21 O           3.5778   -0.1498    0.0000 O.2     1  UNL1       -0.2758
@<TRIPOS>BOND
     1     1     2    1
     2     1    10    1
     3     1    20    1
     4     1    21    1
     5     2     3    1
     6     3     4    1
     7     3    18    1
     8     3    19    1
     9     4     5    1
    10     4    10    1
    11     4    14    1
    12     5     6    1
    13     6     7    1
    14     7     8    1
    15     7    16    1
    16     7    17    1
    17     8     9    1
    18     8    14    1
    19     8    15    1
    20     9    10    1
    21     9    12    1
    22     9    13    1
    23    10    11    1
