@<TRIPOS>MOLECULE
IMPHY003683
 50 54 0 0 0
SMALL
GASTEIGER

@<TRIPOS>ATOM
      1 O           4.6767   -2.0785    0.0000 O.3     1  UNL1       -0.3684
      2 O           7.2862   -2.0757    0.0000 O.3     1  UNL1       -0.4555
      3 O           6.8007    0.0388    0.0000 O.3     1  UNL1       -0.3877
      4 O           6.9088   -0.5397    0.0000 O.3     1  UNL1       -0.3911
      5 O           2.5405    0.9572    0.0000 O.3     1  UNL1       -0.3834
      6 O           7.9741   -1.2363    0.0000 O.2     1  UNL1       -0.2504
      7 O           2.5247    3.0054    0.0000 O.2     1  UNL1       -0.2899
      8 C           5.1767   -0.5397    0.0000 C.3     1  UNL1        0.0416
      9 C           4.3107   -0.0397    0.0000 C.3     1  UNL1        0.0083
     10 C           5.9857   -1.1275    0.0000 C.3     1  UNL1        0.0990
     11 C           5.6767   -2.0785    0.0000 C.3     1  UNL1        0.1194
     12 C           4.3107    0.9603    0.0000 C.3     1  UNL1        0.0136
     13 C           6.1532   -0.7233    0.0000 C.3     1  UNL1        0.0989
     14 C           6.4824   -2.6607    0.0000 C.3     1  UNL1        0.1583
     15 C           6.0427   -0.0397    0.0000 C.3     1  UNL1        0.0647
     16 C           4.3677   -1.1275    0.0000 C.3     1  UNL1        0.0578
     17 C           5.1767    1.4603    0.0000 C.3     1  UNL1       -0.0089
     18 C           6.0427    0.9603    0.0000 C.3     1  UNL1       -0.0191
     19 C           6.9798   -1.1300    0.0000 C.2     1  UNL1        0.3142
     20 C           3.4007    1.4672    0.0000 C.3     1  UNL1        0.1232
     21 C           5.3677   -3.0296    0.0000 C.3     1  UNL1       -0.0314
     22 C           3.4446    0.4603    0.0000 C.3     1  UNL1       -0.0559
     23 C           5.1928    2.5018    0.0000 C.2     1  UNL1       -0.0655
     24 C           3.3926    2.5088    0.0000 C.2     1  UNL1        0.1848
     25 C           4.2947    3.0296    0.0000 C.2     1  UNL1       -0.0173
     26 C           6.0645    2.9918    0.0000 C.3     1  UNL1       -0.0431
     27 H           3.5746   -0.4647    0.0000 H       1  UNL1        0.0340
     28 H           6.4844   -1.8158    0.0000 H       1  UNL1        0.0450
     29 H           6.9728   -0.9484    0.0000 H       1  UNL1        0.0634
     30 H           6.4839   -3.5107    0.0000 H       1  UNL1        0.0790
     31 H           6.0427   -0.8897    0.0000 H       1  UNL1        0.0600
     32 H           4.0577   -0.5905    0.0000 H       1  UNL1        0.0567
     33 H           3.8013   -1.3796    0.0000 H       1  UNL1        0.0567
     34 H           5.9161    1.8796    0.0000 H       1  UNL1        0.0353
     35 H           6.6533    0.8527    0.0000 H       1  UNL1        0.0296
     36 H           6.2548    1.5429    0.0000 H       1  UNL1        0.0296
     37 H           2.6605    1.8850    0.0000 H       1  UNL1        0.0682
     38 H           4.7780   -2.8380    0.0000 H       1  UNL1        0.0259
     39 H           5.1761   -3.6192    0.0000 H       1  UNL1        0.0259
     40 H           5.9573   -3.2212    0.0000 H       1  UNL1        0.0259
     41 H           3.1346    0.9973    0.0000 H       1  UNL1        0.0236
     42 H           2.9077    0.1503    0.0000 H       1  UNL1        0.0236
     43 H           3.7546   -0.0766    0.0000 H       1  UNL1        0.0236
     44 H           6.5923    0.6227    0.0000 H       1  UNL1        0.2100
     45 H           7.4457   -0.2297    0.0000 H       1  UNL1        0.2098
     46 H           4.2971    3.6496    0.0000 H       1  UNL1        0.0653
     47 H           2.0000    1.2610    0.0000 H       1  UNL1        0.2104
     48 H           6.3683    2.4513    0.0000 H       1  UNL1        0.0275
     49 H           6.6050    3.2956    0.0000 H       1  UNL1        0.0275
     50 H           5.7607    3.5323    0.0000 H       1  UNL1        0.0275
@<TRIPOS>BOND
     1     1    11    1
     2     1    16    1
     3     2    14    1
     4     2    19    1
     5     3    13    1
     6     3    44    1
     7     4    15    1
     8     4    45    1
     9     5    20    1
    10     5    47    1
    11     6    19    2
    12     7    24    2
    13     8     9    1
    14     8    10    1
    15     8    15    1
    16     8    16    1
    17     9    12    1
    18     9    13    1
    19     9    27    1
    20    10    11    1
    21    10    19    1
    22    10    28    1
    23    11    14    1
    24    11    21    1
    25    12    17    1
    26    12    20    1
    27    12    22    1
    28    13    14    1
    29    13    29    1
    30    14    30    1
    31    15    18    1
    32    15    31    1
    33    16    32    1
    34    16    33    1
    35    17    18    1
    36    17    23    1
    37    17    34    1
    38    18    35    1
    39    18    36    1
    40    20    24    1
    41    20    37    1
    42    21    38    1
    43    21    39    1
    44    21    40    1
    45    22    41    1
    46    22    42    1
    47    22    43    1
    48    23    25    2
    49    23    26    1
    50    24    25    1
    51    25    46    1
    52    26    48    1
    53    26    49    1
    54    26    50    1
