@<TRIPOS>MOLECULE
IMPHY011700
 51 50 0 0 0
SMALL
GASTEIGER

@<TRIPOS>ATOM
      1 O           6.3301   -0.5950    0.0000 O.3     1  UNL1       -0.3918
      2 O          15.8564    0.9050    0.0000 O.3     1  UNL1       -0.4806
      3 O          14.9904   -0.5950    0.0000 O.2     1  UNL1       -0.2510
      4 C           7.1962    0.9050    0.0000 C.3     1  UNL1       -0.0269
      5 C           8.0622    0.4050    0.0000 C.3     1  UNL1       -0.0507
      6 C           6.3301    0.4050    0.0000 C.3     1  UNL1        0.0553
      7 C           8.9282    0.9050    0.0000 C.3     1  UNL1       -0.0530
      8 C           9.7942    0.4050    0.0000 C.3     1  UNL1       -0.0531
      9 C           5.4641    0.9050    0.0000 C.3     1  UNL1       -0.0269
     10 C          10.6603    0.9050    0.0000 C.3     1  UNL1       -0.0531
     11 C           4.5981    0.4050    0.0000 C.3     1  UNL1       -0.0507
     12 C          11.5263    0.4050    0.0000 C.3     1  UNL1       -0.0530
     13 C          12.3923    0.9050    0.0000 C.3     1  UNL1       -0.0526
     14 C           3.7320    0.9050    0.0000 C.3     1  UNL1       -0.0532
     15 C          13.2583    0.4050    0.0000 C.3     1  UNL1       -0.0430
     16 C           2.8660    0.4050    0.0000 C.3     1  UNL1       -0.0559
     17 C          14.1244    0.9050    0.0000 C.3     1  UNL1        0.0448
     18 C           2.0000    0.9050    0.0000 C.3     1  UNL1       -0.0653
     19 C          14.9904    0.4050    0.0000 C.2     1  UNL1        0.3047
     20 H           7.5947    1.3800    0.0000 H       1  UNL1        0.0290
     21 H           6.7976    1.3800    0.0000 H       1  UNL1        0.0290
     22 H           7.6636   -0.0699    0.0000 H       1  UNL1        0.0266
     23 H           8.4607   -0.0699    0.0000 H       1  UNL1        0.0266
     24 H           6.8671    0.0950    0.0000 H       1  UNL1        0.0593
     25 H           9.3267    1.3800    0.0000 H       1  UNL1        0.0265
     26 H           8.5297    1.3800    0.0000 H       1  UNL1        0.0265
     27 H           9.3957   -0.0699    0.0000 H       1  UNL1        0.0265
     28 H          10.1928   -0.0699    0.0000 H       1  UNL1        0.0265
     29 H           5.8626    1.3800    0.0000 H       1  UNL1        0.0290
     30 H           5.0656    1.3800    0.0000 H       1  UNL1        0.0290
     31 H          11.0588    1.3800    0.0000 H       1  UNL1        0.0265
     32 H          10.2617    1.3800    0.0000 H       1  UNL1        0.0265
     33 H           4.1996   -0.0699    0.0000 H       1  UNL1        0.0266
     34 H           4.9966   -0.0699    0.0000 H       1  UNL1        0.0266
     35 H          11.1278   -0.0699    0.0000 H       1  UNL1        0.0265
     36 H          11.9248   -0.0699    0.0000 H       1  UNL1        0.0265
     37 H          12.7908    1.3800    0.0000 H       1  UNL1        0.0265
     38 H          11.9938    1.3800    0.0000 H       1  UNL1        0.0265
     39 H           4.1306    1.3800    0.0000 H       1  UNL1        0.0265
     40 H           3.3335    1.3800    0.0000 H       1  UNL1        0.0265
     41 H          12.8598   -0.0699    0.0000 H       1  UNL1        0.0270
     42 H          13.6569   -0.0699    0.0000 H       1  UNL1        0.0270
     43 H           2.4675   -0.0699    0.0000 H       1  UNL1        0.0263
     44 H           3.2646   -0.0699    0.0000 H       1  UNL1        0.0263
     45 H           5.7932   -0.9050    0.0000 H       1  UNL1        0.2098
     46 H          14.5229    1.3800    0.0000 H       1  UNL1        0.0377
     47 H          13.7258    1.3800    0.0000 H       1  UNL1        0.0377
     48 H           2.3100    1.4419    0.0000 H       1  UNL1        0.0230
     49 H           1.4631    1.2150    0.0000 H       1  UNL1        0.0230
     50 H           1.6900    0.3681    0.0000 H       1  UNL1        0.0230
     51 H          16.3933    0.5950    0.0000 H       1  UNL1        0.2951
@<TRIPOS>BOND
     1     1     6    1
     2     1    45    1
     3     2    19    1
     4     2    51    1
     5     3    19    2
     6     4     5    1
     7     4     6    1
     8     4    20    1
     9     4    21    1
    10     5     7    1
    11     5    22    1
    12     5    23    1
    13     6     9    1
    14     6    24    1
    15     7     8    1
    16     7    25    1
    17     7    26    1
    18     8    10    1
    19     8    27    1
    20     8    28    1
    21     9    11    1
    22     9    29    1
    23     9    30    1
    24    10    12    1
    25    10    31    1
    26    10    32    1
    27    11    14    1
    28    11    33    1
    29    11    34    1
    30    12    13    1
    31    12    35    1
    32    12    36    1
    33    13    15    1
    34    13    37    1
    35    13    38    1
    36    14    16    1
    37    14    39    1
    38    14    40    1
    39    15    17    1
    40    15    41    1
    41    15    42    1
    42    16    18    1
    43    16    43    1
    44    16    44    1
    45    17    19    1
    46    17    46    1
    47    17    47    1
    48    18    48    1
    49    18    49    1
    50    18    50    1
