@<TRIPOS>MOLECULE
IMPHY008130
 88 92 0 0 0
SMALL
GASTEIGER

@<TRIPOS>ATOM
      1 O           5.1350   -2.0000    0.0000 O.3     1  UNL1       -0.3313
      2 O           6.8671   -2.0000    0.0000 O.3     1  UNL1       -0.4600
      3 O           6.0010    2.5000    0.0000 O.3     1  UNL1       -0.3313
      4 O           5.1350    1.0000    0.0000 O.3     1  UNL1       -0.4601
      5 O           8.6270    1.0347    0.0000 O.3     1  UNL1       -0.4833
      6 O           8.6155   -2.0346    0.0000 O.3     1  UNL1       -0.3748
      7 O           6.8671   -4.0000    0.0000 O.3     1  UNL1       -0.3829
      8 O           5.1350   -5.0000    0.0000 O.3     1  UNL1       -0.3864
      9 O           3.4030   -4.0000    0.0000 O.3     1  UNL1       -0.3865
     10 O           3.4030    4.0000    0.0000 O.3     1  UNL1       -0.3864
     11 O           3.4030    2.0000    0.0000 O.3     1  UNL1       -0.3829
     12 O           5.1350    5.0000    0.0000 O.3     1  UNL1       -0.3865
     13 O           2.5369   -2.5000    0.0000 O.3     1  UNL1       -0.3924
     14 O           6.8671    5.0000    0.0000 O.3     1  UNL1       -0.3924
     15 O          12.9895    2.5342    0.0000 O.3     1  UNL1       -0.4951
     16 C           6.0010   -3.5000    0.0000 C.3     1  UNL1        0.1454
     17 C           5.1350   -4.0000    0.0000 C.3     1  UNL1        0.1152
     18 C           6.0010   -2.5000    0.0000 C.3     1  UNL1        0.2308
     19 C           4.2690   -3.5000    0.0000 C.3     1  UNL1        0.1120
     20 C           4.2690    3.5000    0.0000 C.3     1  UNL1        0.1152
     21 C           4.2690   -2.5000    0.0000 C.3     1  UNL1        0.1140
     22 C           4.2690    2.5000    0.0000 C.3     1  UNL1        0.1454
     23 C           7.7331   -0.5000    0.0000 C.ar    1  UNL1        0.0653
     24 C           5.1350    4.0000    0.0000 C.3     1  UNL1        0.1120
     25 C           5.1350    2.0000    0.0000 C.3     1  UNL1        0.2308
     26 C           8.6270   -1.0347    0.0000 C.3     1  UNL1        0.0938
     27 C           6.0010    3.5000    0.0000 C.3     1  UNL1        0.1140
     28 C           9.5331   -0.5208    0.0000 C.3     1  UNL1        0.0192
     29 C           6.8671   -1.0000    0.0000 C.ar    1  UNL1        0.1395
     30 C           7.7331    0.5000    0.0000 C.ar    1  UNL1        0.1369
     31 C           9.5331    0.5208    0.0000 C.3     1  UNL1        0.1279
     32 C           6.0010    0.5000    0.0000 C.ar    1  UNL1        0.1367
     33 C           6.0010   -0.5000    0.0000 C.ar    1  UNL1        0.0339
     34 C           6.8671    1.0000    0.0000 C.ar    1  UNL1        0.0338
     35 C           3.4030   -2.0000    0.0000 C.3     1  UNL1        0.0731
     36 C           6.8671    4.0000    0.0000 C.3     1  UNL1        0.0731
     37 C          10.3972    1.0241    0.0000 C.ar    1  UNL1       -0.0070
     38 C           5.1350   -1.0000    0.0000 C.3     1  UNL1       -0.0327
     39 C           6.8671    2.0000    0.0000 C.3     1  UNL1       -0.0327
     40 C          11.2651    0.5275    0.0000 C.ar    1  UNL1       -0.0516
     41 C          10.3933    2.0241    0.0000 C.ar    1  UNL1       -0.0516
     42 C           9.4756   -2.5446    0.0000 C.3     1  UNL1        0.0372
     43 C          12.1292    1.0308    0.0000 C.ar    1  UNL1       -0.0196
     44 C          11.2574    2.5275    0.0000 C.ar    1  UNL1       -0.0196
     45 C          12.1254    2.0308    0.0000 C.ar    1  UNL1        0.1201
     46 C          13.8574    2.0375    0.0000 C.3     1  UNL1        0.0788
     47 H           6.0010   -4.1200    0.0000 H       1  UNL1        0.0683
     48 H           4.5981   -4.3100    0.0000 H       1  UNL1        0.0648
     49 H           6.0010   -1.8800    0.0000 H       1  UNL1        0.1084
     50 H           3.7320   -3.1900    0.0000 H       1  UNL1        0.0647
     51 H           4.2690    4.1200    0.0000 H       1  UNL1        0.0648
     52 H           4.2690   -1.8800    0.0000 H       1  UNL1        0.0647
     53 H           4.2690    1.8800    0.0000 H       1  UNL1        0.0683
     54 H           5.6720    4.3100    0.0000 H       1  UNL1        0.0647
     55 H           5.6720    1.6900    0.0000 H       1  UNL1        0.1084
     56 H           9.1610   -1.3498    0.0000 H       1  UNL1        0.0650
     57 H           6.5380    3.1900    0.0000 H       1  UNL1        0.0647
     58 H           9.7422   -1.1045    0.0000 H       1  UNL1        0.0333
     59 H          10.1440   -0.4147    0.0000 H       1  UNL1        0.0333
     60 H           9.5295    1.1408    0.0000 H       1  UNL1        0.0785
     61 H           3.8015   -1.5250    0.0000 H       1  UNL1        0.0584
     62 H           3.0044   -1.5250    0.0000 H       1  UNL1        0.0584
     63 H           7.0791    3.4174    0.0000 H       1  UNL1        0.0584
     64 H           7.4776    4.1077    0.0000 H       1  UNL1        0.0584
     65 H           4.8250   -0.4631    0.0000 H       1  UNL1        0.0280
     66 H           4.5981   -1.3100    0.0000 H       1  UNL1        0.0280
     67 H           5.4450   -1.5369    0.0000 H       1  UNL1        0.0280
     68 H           7.4871    2.0000    0.0000 H       1  UNL1        0.0280
     69 H           6.8671    2.6200    0.0000 H       1  UNL1        0.0280
     70 H           6.2471    2.0000    0.0000 H       1  UNL1        0.0280
     71 H           6.8671   -4.6200    0.0000 H       1  UNL1        0.2102
     72 H           4.5981   -5.3100    0.0000 H       1  UNL1        0.2100
     73 H           3.4030   -4.6200    0.0000 H       1  UNL1        0.2100
     74 H           3.4030    4.6200    0.0000 H       1  UNL1        0.2100
     75 H           2.8660    2.3100    0.0000 H       1  UNL1        0.2102
     76 H           4.5981    5.3100    0.0000 H       1  UNL1        0.2100
     77 H          11.2675   -0.0925    0.0000 H       1  UNL1        0.0623
     78 H           9.8552    2.3321    0.0000 H       1  UNL1        0.0623
     79 H           9.1595   -3.0779    0.0000 H       1  UNL1        0.0524
     80 H          10.0090   -2.8608    0.0000 H       1  UNL1        0.0524
     81 H           9.7918   -2.0113    0.0000 H       1  UNL1        0.0524
     82 H           2.0000   -2.1900    0.0000 H       1  UNL1        0.2095
     83 H           7.4040    5.3100    0.0000 H       1  UNL1        0.2095
     84 H          12.6674    0.7229    0.0000 H       1  UNL1        0.0654
     85 H          11.2550    3.1475    0.0000 H       1  UNL1        0.0654
     86 H          13.5495    1.4994    0.0000 H       1  UNL1        0.0660
     87 H          14.3955    1.7296    0.0000 H       1  UNL1        0.0660
     88 H          14.1653    2.5756    0.0000 H       1  UNL1        0.0660
@<TRIPOS>BOND
     1     1    18    1
     2     1    21    1
     3    18     2    1
     4     2    29    1
     5     3    25    1
     6     3    27    1
     7    25     4    1
     8     4    32    1
     9     5    30    1
    10     5    31    1
    11    26     6    1
    12     6    42    1
    13     7    16    1
    14     7    71    1
    15    17     8    1
    16     8    72    1
    17    19     9    1
    18     9    73    1
    19    20    10    1
    20    10    74    1
    21    11    22    1
    22    11    75    1
    23    24    12    1
    24    12    76    1
    25    13    35    1
    26    13    82    1
    27    14    36    1
    28    14    83    1
    29    15    45    1
    30    15    46    1
    31    16    17    1
    32    16    18    1
    33    16    47    1
    34    17    19    1
    35    17    48    1
    36    18    49    1
    37    19    21    1
    38    19    50    1
    39    20    22    1
    40    20    24    1
    41    20    51    1
    42    21    35    1
    43    21    52    1
    44    22    25    1
    45    22    53    1
    46    23    26    1
    47    23    29   ar
    48    23    30   ar
    49    24    27    1
    50    24    54    1
    51    25    55    1
    52    26    28    1
    53    26    56    1
    54    27    36    1
    55    27    57    1
    56    28    31    1
    57    28    58    1
    58    28    59    1
    59    29    33   ar
    60    30    34   ar
    61    31    37    1
    62    31    60    1
    63    32    33   ar
    64    32    34   ar
    65    33    38    1
    66    34    39    1
    67    35    61    1
    68    35    62    1
    69    36    63    1
    70    36    64    1
    71    37    40   ar
    72    37    41   ar
    73    38    65    1
    74    38    66    1
    75    38    67    1
    76    39    68    1
    77    39    69    1
    78    39    70    1
    79    40    43   ar
    80    40    77    1
    81    41    44   ar
    82    41    78    1
    83    42    79    1
    84    42    80    1
    85    42    81    1
    86    43    45   ar
    87    43    84    1
    88    44    45   ar
    89    44    85    1
    90    46    86    1
    91    46    87    1
    92    46    88    1
