@<TRIPOS>MOLECULE
IMPHY001054
 72 77 0 0 0
SMALL
GASTEIGER

@<TRIPOS>ATOM
      1 O           4.6497   -5.0998    0.0000 O.3     1  UNL1       -0.5030
      2 O           2.8680   -2.0410    0.0000 O.3     1  UNL1       -0.4913
      3 O           2.8680   -4.0893    0.0000 O.3     1  UNL1       -0.4885
      4 N           7.2641   -2.5652    0.0000 N.3     1  UNL1       -0.2948
      5 N           5.5062    0.4799    0.0000 N.3     1  UNL1       -0.3078
      6 N           7.1485    2.7057    0.0000 N.ar    1  UNL1       -0.3565
      7 C           7.2800   -0.4959    0.0000 C.3     1  UNL1       -0.0336
      8 C           8.1821   -1.0167    0.0000 C.3     1  UNL1       -0.0255
      9 C           6.3981   -2.0652    0.0000 C.3     1  UNL1        0.0364
     10 C           6.3820   -1.0237    0.0000 C.3     1  UNL1       -0.0300
     11 C           8.1741   -2.0583    0.0000 C.3     1  UNL1        0.0026
     12 C           7.2762    0.5041    0.0000 C.3     1  UNL1       -0.0288
     13 C           6.4082    1.0008    0.0000 C.3     1  UNL1        0.0486
     14 C           9.0501   -0.5201    0.0000 C.3     1  UNL1       -0.0516
     15 C           7.2641   -3.5652    0.0000 C.3     1  UNL1        0.0036
     16 C           5.5320   -2.5652    0.0000 C.ar    1  UNL1       -0.0199
     17 C           6.3981   -4.0652    0.0000 C.3     1  UNL1       -0.0110
     18 C           5.5320   -3.5652    0.0000 C.ar    1  UNL1        0.0038
     19 C           6.4002    2.0424    0.0000 C.ar    1  UNL1        0.0374
     20 C           9.9142   -1.0234    0.0000 C.3     1  UNL1       -0.0650
     21 C           5.5381    2.5490    0.0000 C.ar    1  UNL1       -0.0164
     22 C           4.6381   -2.0305    0.0000 C.ar    1  UNL1       -0.0111
     23 C           4.6081    1.0077    0.0000 C.3     1  UNL1        0.0005
     24 C           4.6242    2.0492    0.0000 C.3     1  UNL1       -0.0128
     25 C           4.6381   -4.0998    0.0000 C.ar    1  UNL1        0.1658
     26 C           5.7535    3.5255    0.0000 C.ar    1  UNL1        0.0032
     27 C           3.7320   -2.5444    0.0000 C.ar    1  UNL1        0.1655
     28 C           6.7488    3.6224    0.0000 C.ar    1  UNL1        0.0470
     29 C           3.7320   -3.5860    0.0000 C.ar    1  UNL1        0.2036
     30 C           5.1348    4.3635    0.0000 C.ar    1  UNL1       -0.0523
     31 C           7.1944    4.5639    0.0000 C.ar    1  UNL1       -0.0378
     32 C           5.5585    5.3150    0.0000 C.ar    1  UNL1       -0.0611
     33 C           6.5952    5.4159    0.0000 C.ar    1  UNL1       -0.0598
     34 C           2.8718   -1.0410    0.0000 C.3     1  UNL1        0.0790
     35 C           2.0000   -3.5926    0.0000 C.3     1  UNL1        0.0791
     36 H           6.7413   -0.1890    0.0000 H       1  UNL1        0.0305
     37 H           8.7173   -1.3298    0.0000 H       1  UNL1        0.0316
     38 H           7.1309   -1.6345    0.0000 H       1  UNL1        0.0512
     39 H           6.1640   -0.4433    0.0000 H       1  UNL1        0.0286
     40 H           5.7729   -1.1392    0.0000 H       1  UNL1        0.0286
     41 H           8.3786   -2.6436    0.0000 H       1  UNL1        0.0429
     42 H           8.7858   -1.9569    0.0000 H       1  UNL1        0.0429
     43 H           7.8872    0.3988    0.0000 H       1  UNL1        0.0287
     44 H           7.4860    1.0875    0.0000 H       1  UNL1        0.0287
     45 H           6.4094    0.3808    0.0000 H       1  UNL1        0.0525
     46 H           9.4504   -0.0467    0.0000 H       1  UNL1        0.0266
     47 H           8.6534   -0.0436    0.0000 H       1  UNL1        0.0266
     48 H           7.4762   -4.1478    0.0000 H       1  UNL1        0.0430
     49 H           7.8747   -3.4575    0.0000 H       1  UNL1        0.0430
     50 H           5.9995   -4.5401    0.0000 H       1  UNL1        0.0327
     51 H           6.7966   -4.5401    0.0000 H       1  UNL1        0.0327
     52 H           5.5038   -0.1401    0.0000 H       1  UNL1        0.1226
     53 H           9.6021   -1.5591    0.0000 H       1  UNL1        0.0230
     54 H          10.4499   -1.3355    0.0000 H       1  UNL1        0.0230
     55 H          10.2262   -0.4877    0.0000 H       1  UNL1        0.0230
     56 H           4.6453   -1.4105    0.0000 H       1  UNL1        0.0659
     57 H           3.9990    1.1232    0.0000 H       1  UNL1        0.0427
     58 H           4.3901    0.4273    0.0000 H       1  UNL1        0.0427
     59 H           4.4242    2.6360    0.0000 H       1  UNL1        0.0326
     60 H           4.0118    1.9525    0.0000 H       1  UNL1        0.0326
     61 H           7.7539    2.5722    0.0000 H       1  UNL1        0.1656
     62 H           4.5184    4.2963    0.0000 H       1  UNL1        0.0624
     63 H           7.8121    4.6168    0.0000 H       1  UNL1        0.0638
     64 H           4.1164   -5.4159    0.0000 H       1  UNL1        0.2923
     65 H           5.1960    5.8181    0.0000 H       1  UNL1        0.0618
     66 H           6.8539    5.9794    0.0000 H       1  UNL1        0.0618
     67 H           3.4918   -1.0434    0.0000 H       1  UNL1        0.0660
     68 H           2.8742   -0.4210    0.0000 H       1  UNL1        0.0660
     69 H           2.2518   -1.0386    0.0000 H       1  UNL1        0.0660
     70 H           2.3079   -3.0545    0.0000 H       1  UNL1        0.0660
     71 H           1.4619   -3.2847    0.0000 H       1  UNL1        0.0660
     72 H           1.6921   -4.1308    0.0000 H       1  UNL1        0.0660
@<TRIPOS>BOND
     1     1    25    1
     2     1    64    1
     3     2    27    1
     4     2    34    1
     5     3    29    1
     6     3    35    1
     7     4     9    1
     8     4    11    1
     9     4    15    1
    10     5    13    1
    11     5    23    1
    12     5    52    1
    13     6    19   ar
    14     6    28   ar
    15     6    61    1
    16     7     8    1
    17     7    10    1
    18     7    12    1
    19     7    36    1
    20     8    11    1
    21     8    14    1
    22     8    37    1
    23     9    10    1
    24     9    16    1
    25     9    38    1
    26    10    39    1
    27    10    40    1
    28    11    41    1
    29    11    42    1
    30    13    12    1
    31    12    43    1
    32    12    44    1
    33    13    19    1
    34    13    45    1
    35    14    20    1
    36    14    46    1
    37    14    47    1
    38    15    17    1
    39    15    48    1
    40    15    49    1
    41    16    18   ar
    42    16    22   ar
    43    17    18    1
    44    17    50    1
    45    17    51    1
    46    18    25   ar
    47    19    21   ar
    48    20    53    1
    49    20    54    1
    50    20    55    1
    51    21    24    1
    52    21    26   ar
    53    22    27   ar
    54    22    56    1
    55    23    24    1
    56    23    57    1
    57    23    58    1
    58    24    59    1
    59    24    60    1
    60    25    29   ar
    61    26    28   ar
    62    26    30   ar
    63    27    29   ar
    64    28    31   ar
    65    30    32   ar
    66    30    62    1
    67    31    33   ar
    68    31    63    1
    69    32    33   ar
    70    32    65    1
    71    33    66    1
    72    34    67    1
    73    34    68    1
    74    34    69    1
    75    35    70    1
    76    35    71    1
    77    35    72    1
