@<TRIPOS>MOLECULE
IMPHY007358
 66 65 0 0 0
SMALL
GASTEIGER

@<TRIPOS>ATOM
      1 O          14.1244    0.1340    0.0000 O.3     1  UNL1       -0.4544
      2 O          14.9904   -1.3660    0.0000 O.2     1  UNL1       -0.2511
      3 C           9.7942   -0.3660    0.0000 C.3     1  UNL1       -0.0439
      4 C           6.3301   -0.3660    0.0000 C.3     1  UNL1       -0.0439
      5 C           8.9282   -0.8660    0.0000 C.3     1  UNL1       -0.0505
      6 C           7.1962   -0.8660    0.0000 C.3     1  UNL1       -0.0505
      7 C           8.0622   -0.3660    0.0000 C.3     1  UNL1       -0.0526
      8 C          10.6603   -0.8660    0.0000 C.3     1  UNL1       -0.0503
      9 C           5.4641   -0.8660    0.0000 C.3     1  UNL1       -0.0505
     10 C          11.5263   -0.3660    0.0000 C.3     1  UNL1       -0.0489
     11 C           4.5981   -0.3660    0.0000 C.3     1  UNL1       -0.0526
     12 C          12.3923   -0.8660    0.0000 C.3     1  UNL1       -0.0094
     13 C           9.7942    0.6340    0.0000 C.3     1  UNL1       -0.0624
     14 C           6.3301    0.6340    0.0000 C.3     1  UNL1       -0.0624
     15 C           3.7320   -0.8660    0.0000 C.3     1  UNL1       -0.0507
     16 C          13.2583   -0.3660    0.0000 C.3     1  UNL1        0.1286
     17 C           2.8660   -0.3660    0.0000 C.3     1  UNL1       -0.0467
     18 C          13.7583   -1.2320    0.0000 C.3     1  UNL1       -0.0211
     19 C           2.0000   -0.8660    0.0000 C.3     1  UNL1       -0.0627
     20 C           2.8660    0.6340    0.0000 C.3     1  UNL1       -0.0627
     21 C          12.7583    0.5000    0.0000 C.2     1  UNL1       -0.0483
     22 C          13.2583    1.3660    0.0000 C.2     1  UNL1       -0.0989
     23 C          14.9904   -0.3660    0.0000 C.2     1  UNL1        0.3048
     24 C          15.8564    0.1340    0.0000 C.3     1  UNL1        0.0333
     25 H           9.0581    0.0590    0.0000 H       1  UNL1        0.0298
     26 H           7.0662    0.0590    0.0000 H       1  UNL1        0.0298
     27 H           8.5297   -1.3410    0.0000 H       1  UNL1        0.0268
     28 H           9.3267   -1.3410    0.0000 H       1  UNL1        0.0268
     29 H           6.7976   -1.3410    0.0000 H       1  UNL1        0.0268
     30 H           7.5947   -1.3410    0.0000 H       1  UNL1        0.0268
     31 H           8.4607    0.1089    0.0000 H       1  UNL1        0.0265
     32 H           7.6636    0.1089    0.0000 H       1  UNL1        0.0265
     33 H          10.2617   -1.3410    0.0000 H       1  UNL1        0.0268
     34 H          11.0588   -1.3410    0.0000 H       1  UNL1        0.0268
     35 H           5.0656   -1.3410    0.0000 H       1  UNL1        0.0268
     36 H           5.8626   -1.3410    0.0000 H       1  UNL1        0.0268
     37 H          11.9248    0.1089    0.0000 H       1  UNL1        0.0267
     38 H          11.1278    0.1089    0.0000 H       1  UNL1        0.0267
     39 H           4.9966    0.1089    0.0000 H       1  UNL1        0.0265
     40 H           4.1996    0.1089    0.0000 H       1  UNL1        0.0265
     41 H          11.9938   -1.3410    0.0000 H       1  UNL1        0.0307
     42 H          12.7908   -1.3410    0.0000 H       1  UNL1        0.0307
     43 H          10.4142    0.6340    0.0000 H       1  UNL1        0.0232
     44 H           9.7942    1.2540    0.0000 H       1  UNL1        0.0232
     45 H           9.1742    0.6340    0.0000 H       1  UNL1        0.0232
     46 H           3.3335   -1.3410    0.0000 H       1  UNL1        0.0268
     47 H           4.1306   -1.3410    0.0000 H       1  UNL1        0.0268
     48 H           6.9501    0.6340    0.0000 H       1  UNL1        0.0232
     49 H           6.3301    1.2540    0.0000 H       1  UNL1        0.0232
     50 H           5.7101    0.6340    0.0000 H       1  UNL1        0.0232
     51 H           2.8660   -0.9860    0.0000 H       1  UNL1        0.0295
     52 H          13.2214   -1.5420    0.0000 H       1  UNL1        0.0271
     53 H          14.0683   -1.7690    0.0000 H       1  UNL1        0.0271
     54 H          14.2953   -0.9221    0.0000 H       1  UNL1        0.0271
     55 H           1.6900   -0.3291    0.0000 H       1  UNL1        0.0232
     56 H           1.4631   -1.1760    0.0000 H       1  UNL1        0.0232
     57 H           2.3100   -1.4030    0.0000 H       1  UNL1        0.0232
     58 H           3.4860    0.6340    0.0000 H       1  UNL1        0.0232
     59 H           2.8660    1.2540    0.0000 H       1  UNL1        0.0232
     60 H           2.2460    0.6340    0.0000 H       1  UNL1        0.0232
     61 H          12.1383    0.5000    0.0000 H       1  UNL1        0.0605
     62 H          13.8783    1.3660    0.0000 H       1  UNL1        0.0533
     63 H          12.9483    1.9030    0.0000 H       1  UNL1        0.0533
     64 H          16.1664   -0.4030    0.0000 H       1  UNL1        0.0342
     65 H          16.3933    0.4440    0.0000 H       1  UNL1        0.0342
     66 H          15.5464    0.6709    0.0000 H       1  UNL1        0.0342
@<TRIPOS>BOND
     1     1    16    1
     2     1    23    1
     3     2    23    2
     4     3     5    1
     5     3     8    1
     6     3    13    1
     7     3    25    1
     8     4     6    1
     9     4     9    1
    10     4    14    1
    11     4    26    1
    12     5     7    1
    13     5    27    1
    14     5    28    1
    15     6     7    1
    16     6    29    1
    17     6    30    1
    18     7    31    1
    19     7    32    1
    20     8    10    1
    21     8    33    1
    22     8    34    1
    23     9    11    1
    24     9    35    1
    25     9    36    1
    26    10    12    1
    27    10    37    1
    28    10    38    1
    29    11    15    1
    30    11    39    1
    31    11    40    1
    32    12    16    1
    33    12    41    1
    34    12    42    1
    35    13    43    1
    36    13    44    1
    37    13    45    1
    38    14    48    1
    39    14    49    1
    40    14    50    1
    41    15    17    1
    42    15    46    1
    43    15    47    1
    44    16    18    1
    45    16    21    1
    46    17    19    1
    47    17    20    1
    48    17    51    1
    49    18    52    1
    50    18    53    1
    51    18    54    1
    52    19    55    1
    53    19    56    1
    54    19    57    1
    55    20    58    1
    56    20    59    1
    57    20    60    1
    58    21    22    2
    59    21    61    1
    60    22    62    1
    61    22    63    1
    62    23    24    1
    63    24    64    1
    64    24    65    1
    65    24    66    1
