@<TRIPOS>MOLECULE
IMPHY004750
 68 72 0 0 0
SMALL
GASTEIGER

@<TRIPOS>ATOM
      1 O           4.2690   -2.7873    0.0000 O.3     1  UNL1       -0.3339
      2 O           6.0010   -2.7873    0.0000 O.3     1  UNL1       -0.4606
      3 O           4.2690   -5.7873    0.0000 O.3     1  UNL1       -0.3864
      4 O           2.5369   -4.7873    0.0000 O.3     1  UNL1       -0.3866
      5 O           5.1686    2.7852    0.0000 O.3     1  UNL1       -0.3369
      6 O           6.0010   -4.7873    0.0000 O.3     1  UNL1       -0.3829
      7 O           6.9006    2.7786    0.0000 O.3     1  UNL1       -0.4532
      8 O           5.1802    5.7852    0.0000 O.3     1  UNL1       -0.3864
      9 O           6.9083    4.7785    0.0000 O.3     1  UNL1       -0.3829
     10 O           3.4442    4.7919    0.0000 O.3     1  UNL1       -0.3869
     11 O           7.7570    0.2752    0.0000 O.2     1  UNL1       -0.4507
     12 O           4.2548    0.2919    0.0000 O.3     1  UNL1       -0.5058
     13 O           5.1647    1.7852    0.0000 O.2     1  UNL1       -0.2830
     14 O          11.2326    3.2619    0.0000 O.3     1  UNL1       -0.5068
     15 C           4.2690   -4.7873    0.0000 C.3     1  UNL1        0.1151
     16 C           3.4030   -4.2873    0.0000 C.3     1  UNL1        0.1096
     17 C           5.1350   -4.2873    0.0000 C.3     1  UNL1        0.1454
     18 C           3.4030   -3.2873    0.0000 C.3     1  UNL1        0.0883
     19 C           5.1350   -3.2873    0.0000 C.3     1  UNL1        0.2307
     20 C           5.1763    4.7852    0.0000 C.3     1  UNL1        0.1148
     21 C           6.0404    4.2819    0.0000 C.3     1  UNL1        0.1454
     22 C           4.3084    4.2886    0.0000 C.3     1  UNL1        0.1070
     23 C           6.0365    3.2819    0.0000 C.3     1  UNL1        0.2308
     24 C           2.5369   -2.7873    0.0000 C.3     1  UNL1       -0.0360
     25 C           4.3045    3.2886    0.0000 C.3     1  UNL1        0.0802
     26 C           6.0010   -1.7873    0.0000 C.ar    1  UNL1        0.1310
     27 C           6.8968    1.7786    0.0000 C.ar    1  UNL1        0.2138
     28 C           6.0250    0.2819    0.0000 C.ar    1  UNL1        0.1092
     29 C           6.8891   -0.2214    0.0000 C.ar    1  UNL1        0.1465
     30 C           6.9011   -1.2630    0.0000 C.ar    1  UNL1        0.0235
     31 C           5.1010   -1.2630    0.0000 C.ar    1  UNL1        0.0226
     32 C           6.0288    1.2819    0.0000 C.ar    1  UNL1        0.2382
     33 C           7.7609    1.2752    0.0000 C.ar    1  UNL1        0.1809
     34 C           5.1130   -0.2214    0.0000 C.ar    1  UNL1        0.1348
     35 C           8.6288    1.7719    0.0000 C.ar    1  UNL1        0.0213
     36 C           8.6327    2.7719    0.0000 C.ar    1  UNL1       -0.0475
     37 C           9.4929    1.2686    0.0000 C.ar    1  UNL1       -0.0475
     38 C           9.5006    3.2685    0.0000 C.ar    1  UNL1       -0.0195
     39 C          10.3608    1.7652    0.0000 C.ar    1  UNL1       -0.0195
     40 C          10.3647    2.7652    0.0000 C.ar    1  UNL1        0.1169
     41 H           3.7320   -5.0973    0.0000 H       1  UNL1        0.0648
     42 H           3.4030   -4.9073    0.0000 H       1  UNL1        0.0646
     43 H           5.1350   -4.9073    0.0000 H       1  UNL1        0.0683
     44 H           3.4030   -2.6673    0.0000 H       1  UNL1        0.0621
     45 H           5.1350   -2.6673    0.0000 H       1  UNL1        0.1084
     46 H           5.7144    5.0931    0.0000 H       1  UNL1        0.0648
     47 H           6.5761    3.9698    0.0000 H       1  UNL1        0.0683
     48 H           4.3107    4.9086    0.0000 H       1  UNL1        0.0643
     49 H           6.0341    2.6619    0.0000 H       1  UNL1        0.1084
     50 H           2.8469   -2.2503    0.0000 H       1  UNL1        0.0255
     51 H           2.0000   -2.4773    0.0000 H       1  UNL1        0.0255
     52 H           2.2269   -3.3242    0.0000 H       1  UNL1        0.0255
     53 H           3.6943    3.3986    0.0000 H       1  UNL1        0.0588
     54 H           4.0902    2.7068    0.0000 H       1  UNL1        0.0588
     55 H           3.7320   -6.0973    0.0000 H       1  UNL1        0.2100
     56 H           2.0000   -4.4773    0.0000 H       1  UNL1        0.2100
     57 H           6.0010   -5.4073    0.0000 H       1  UNL1        0.2102
     58 H           4.6444    6.0973    0.0000 H       1  UNL1        0.2100
     59 H           6.9107    5.3985    0.0000 H       1  UNL1        0.2102
     60 H           2.9061    4.4840    0.0000 H       1  UNL1        0.2100
     61 H           7.4404   -1.5688    0.0000 H       1  UNL1        0.0691
     62 H           4.5617   -1.5688    0.0000 H       1  UNL1        0.0691
     63 H           8.0969    3.0839    0.0000 H       1  UNL1        0.0626
     64 H           9.4905    0.6486    0.0000 H       1  UNL1        0.0626
     65 H           3.7132   -0.0098    0.0000 H       1  UNL1        0.2922
     66 H           9.5030    3.8885    0.0000 H       1  UNL1        0.0654
     67 H          10.8966    1.4531    0.0000 H       1  UNL1        0.0654
     68 H          11.7684    2.9498    0.0000 H       1  UNL1        0.2921
@<TRIPOS>BOND
     1     1    18    1
     2     1    19    1
     3    19     2    1
     4     2    26    1
     5    15     3    1
     6     3    55    1
     7    16     4    1
     8     4    56    1
     9     5    23    1
    10     5    25    1
    11     6    17    1
    12     6    57    1
    13    23     7    1
    14     7    27    1
    15     8    20    1
    16     8    58    1
    17     9    21    1
    18     9    59    1
    19    22    10    1
    20    10    60    1
    21    11    29   ar
    22    11    33   ar
    23    12    34    1
    24    12    65    1
    25    13    32    2
    26    14    40    1
    27    14    68    1
    28    15    16    1
    29    15    17    1
    30    15    41    1
    31    16    18    1
    32    16    42    1
    33    17    19    1
    34    17    43    1
    35    18    24    1
    36    18    44    1
    37    19    45    1
    38    20    21    1
    39    20    22    1
    40    20    46    1
    41    21    23    1
    42    21    47    1
    43    22    25    1
    44    22    48    1
    45    23    49    1
    46    24    50    1
    47    24    51    1
    48    24    52    1
    49    25    53    1
    50    25    54    1
    51    26    30   ar
    52    26    31   ar
    53    27    32   ar
    54    27    33   ar
    55    28    29   ar
    56    28    32   ar
    57    28    34   ar
    58    29    30   ar
    59    30    61    1
    60    31    34   ar
    61    31    62    1
    62    33    35    1
    63    35    36   ar
    64    35    37   ar
    65    36    38   ar
    66    36    63    1
    67    37    39   ar
    68    37    64    1
    69    38    40   ar
    70    38    66    1
    71    39    40   ar
    72    39    67    1
