@<TRIPOS>MOLECULE
IMPHY013945
 61 64 0 0 0
SMALL
GASTEIGER

@<TRIPOS>ATOM
      1 O           4.6660   -3.5223    0.0000 O.3     1  UNL1       -0.4942
      2 O           2.9340   -0.5223    0.0000 O.3     1  UNL1       -0.5060
      3 O           4.6660    3.4777    0.0000 O.3     1  UNL1       -0.4944
      4 O           2.9176    3.5123    0.0000 O.3     1  UNL1       -0.4944
      5 N           7.3321   -2.0431    0.0000 N.2     1  UNL1       -0.2316
      6 C           7.3321   -1.0015    0.0000 C.3     1  UNL1        0.1562
      7 C           6.4260   -0.4876    0.0000 C.3     1  UNL1        0.0358
      8 C           5.5321   -1.0223    0.0000 C.ar    1  UNL1       -0.0133
      9 C           5.5321   -2.0223    0.0000 C.ar    1  UNL1        0.0867
     10 C           6.4260   -2.5570    0.0000 C.2     1  UNL1        0.1866
     11 C           4.6660   -0.5223    0.0000 C.ar    1  UNL1        0.0288
     12 C           8.1962   -0.4981    0.0000 C.3     1  UNL1       -0.0022
     13 C           4.6660    0.4777    0.0000 C.ar    1  UNL1       -0.0032
     14 C           4.6660   -2.5223    0.0000 C.ar    1  UNL1        0.1369
     15 C           3.8000   -1.0223    0.0000 C.ar    1  UNL1        0.1283
     16 C           8.1962   -2.5464    0.0000 C.3     1  UNL1        0.1354
     17 C           6.4144   -3.5569    0.0000 C.3     1  UNL1        0.0210
     18 C           3.8000   -2.0223    0.0000 C.ar    1  UNL1        0.0229
     19 C           3.8000    0.9777    0.0000 C.ar    1  UNL1       -0.0028
     20 C           5.5321    0.9777    0.0000 C.ar    1  UNL1       -0.0386
     21 C           3.8000    1.9777    0.0000 C.ar    1  UNL1        0.0659
     22 C           5.5321    1.9777    0.0000 C.ar    1  UNL1       -0.0157
     23 C           4.6660    2.4777    0.0000 C.ar    1  UNL1        0.1316
     24 C           2.9061    0.4431    0.0000 C.ar    1  UNL1       -0.0531
     25 C           6.3981    0.4777    0.0000 C.3     1  UNL1       -0.0390
     26 C           2.9061    2.5124    0.0000 C.ar    1  UNL1        0.1313
     27 C           2.0000    0.9569    0.0000 C.ar    1  UNL1       -0.0577
     28 C           2.0000    1.9985    0.0000 C.ar    1  UNL1       -0.0192
     29 C           3.8000   -4.0223    0.0000 C.3     1  UNL1        0.0788
     30 C           5.5321    3.9777    0.0000 C.3     1  UNL1        0.0788
     31 C           2.0574    4.0223    0.0000 C.3     1  UNL1        0.0788
     32 H           7.8696   -1.3104    0.0000 H       1  UNL1        0.1063
     33 H           6.8196   -0.0086    0.0000 H       1  UNL1        0.0378
     34 H           6.0214   -0.0178    0.0000 H       1  UNL1        0.0378
     35 H           8.5082   -1.0339    0.0000 H       1  UNL1        0.0294
     36 H           8.7319   -0.1861    0.0000 H       1  UNL1        0.0294
     37 H           7.8841    0.0376    0.0000 H       1  UNL1        0.0294
     38 H           7.8841   -3.0822    0.0000 H       1  UNL1        0.0988
     39 H           8.7319   -2.8585    0.0000 H       1  UNL1        0.0988
     40 H           8.5082   -2.0107    0.0000 H       1  UNL1        0.0988
     41 H           5.7945   -3.5497    0.0000 H       1  UNL1        0.0336
     42 H           6.4073   -4.1768    0.0000 H       1  UNL1        0.0336
     43 H           7.0344   -3.5640    0.0000 H       1  UNL1        0.0336
     44 H           3.2631   -2.3323    0.0000 H       1  UNL1        0.0691
     45 H           6.0690    2.2877    0.0000 H       1  UNL1        0.0657
     46 H           2.9132   -0.1769    0.0000 H       1  UNL1        0.0624
     47 H           6.0881   -0.0592    0.0000 H       1  UNL1        0.0278
     48 H           6.9350    0.1677    0.0000 H       1  UNL1        0.0278
     49 H           6.7081    1.0146    0.0000 H       1  UNL1        0.0278
     50 H           2.3970   -0.8323    0.0000 H       1  UNL1        0.2922
     51 H           1.4643    0.6448    0.0000 H       1  UNL1        0.0619
     52 H           1.4643    2.3106    0.0000 H       1  UNL1        0.0654
     53 H           3.4900   -3.4854    0.0000 H       1  UNL1        0.0660
     54 H           3.2631   -4.3323    0.0000 H       1  UNL1        0.0660
     55 H           4.1100   -4.5592    0.0000 H       1  UNL1        0.0660
     56 H           5.8421    3.4408    0.0000 H       1  UNL1        0.0660
     57 H           6.0690    4.2877    0.0000 H       1  UNL1        0.0660
     58 H           5.2221    4.5146    0.0000 H       1  UNL1        0.0660
     59 H           2.3736    4.5556    0.0000 H       1  UNL1        0.0660
     60 H           1.5241    4.3385    0.0000 H       1  UNL1        0.0660
     61 H           1.7413    3.4890    0.0000 H       1  UNL1        0.0660
@<TRIPOS>UNITY_ATOM_ATTR
5 1
charge 1
@<TRIPOS>BOND
     1     1    14    1
     2     1    29    1
     3     2    15    1
     4     2    50    1
     5     3    23    1
     6     3    30    1
     7     4    26    1
     8     4    31    1
     9     5     6    1
    10     5    10    2
    11     5    16    1
    12     6     7    1
    13     6    12    1
    14     6    32    1
    15     7     8    1
    16     7    33    1
    17     7    34    1
    18     8     9   ar
    19     8    11   ar
    20     9    10    1
    21     9    14   ar
    22    10    17    1
    23    11    13    1
    24    11    15   ar
    25    12    35    1
    26    12    36    1
    27    12    37    1
    28    13    19   ar
    29    13    20   ar
    30    14    18   ar
    31    15    18   ar
    32    16    38    1
    33    16    39    1
    34    16    40    1
    35    17    41    1
    36    17    42    1
    37    17    43    1
    38    18    44    1
    39    19    21   ar
    40    19    24   ar
    41    20    22   ar
    42    20    25    1
    43    21    23   ar
    44    21    26   ar
    45    22    23   ar
    46    22    45    1
    47    24    27   ar
    48    24    46    1
    49    25    47    1
    50    25    48    1
    51    25    49    1
    52    26    28   ar
    53    27    28   ar
    54    27    51    1
    55    28    52    1
    56    29    53    1
    57    29    54    1
    58    29    55    1
    59    30    56    1
    60    30    57    1
    61    30    58    1
    62    31    59    1
    63    31    60    1
    64    31    61    1
