@<TRIPOS>MOLECULE
IMPHY017767
 27 26 0 0 0
SMALL
GASTEIGER

@<TRIPOS>ATOM
      1 O           6.3301    0.2500    0.0000 O.3     1  UNL1       -0.3764
      2 O           3.7320    0.7500    0.0000 O.3     1  UNL1       -0.4625
      3 O           2.8660   -0.7500    0.0000 O.2     1  UNL1       -0.2512
      4 C           8.0622    0.2500    0.0000 C.3     1  UNL1       -0.0297
      5 C           8.9282    0.7500    0.0000 C.3     1  UNL1       -0.0538
      6 C           7.1962    0.7500    0.0000 C.3     1  UNL1        0.0478
      7 C           5.4641    0.7500    0.0000 C.3     1  UNL1        0.0818
      8 C           9.7942    0.2500    0.0000 C.3     1  UNL1       -0.0652
      9 C           4.5981    0.2500    0.0000 C.3     1  UNL1        0.1157
     10 C           2.8660    0.2500    0.0000 C.2     1  UNL1        0.3040
     11 C           2.0000    0.7500    0.0000 C.3     1  UNL1        0.0332
     12 H           7.6636   -0.2249    0.0000 H       1  UNL1        0.0287
     13 H           8.4607   -0.2249    0.0000 H       1  UNL1        0.0287
     14 H           9.3267    1.2250    0.0000 H       1  UNL1        0.0263
     15 H           8.5297    1.2250    0.0000 H       1  UNL1        0.0263
     16 H           7.5947    1.2250    0.0000 H       1  UNL1        0.0560
     17 H           6.7976    1.2250    0.0000 H       1  UNL1        0.0560
     18 H           5.8626    1.2250    0.0000 H       1  UNL1        0.0594
     19 H           5.0656    1.2250    0.0000 H       1  UNL1        0.0594
     20 H           9.4842   -0.2869    0.0000 H       1  UNL1        0.0230
     21 H          10.3312   -0.0600    0.0000 H       1  UNL1        0.0230
     22 H          10.1042    0.7869    0.0000 H       1  UNL1        0.0230
     23 H           4.1996   -0.2249    0.0000 H       1  UNL1        0.0721
     24 H           4.9966   -0.2249    0.0000 H       1  UNL1        0.0721
     25 H           2.3100    1.2869    0.0000 H       1  UNL1        0.0342
     26 H           1.4631    1.0600    0.0000 H       1  UNL1        0.0342
     27 H           1.6900    0.2131    0.0000 H       1  UNL1        0.0342
@<TRIPOS>BOND
     1     1     6    1
     2     1     7    1
     3     2     9    1
     4     2    10    1
     5     3    10    2
     6     4     5    1
     7     4     6    1
     8     4    12    1
     9     4    13    1
    10     5     8    1
    11     5    14    1
    12     5    15    1
    13     6    16    1
    14     6    17    1
    15     7     9    1
    16     7    18    1
    17     7    19    1
    18     8    20    1
    19     8    21    1
    20     8    22    1
    21     9    23    1
    22     9    24    1
    23    10    11    1
    24    11    25    1
    25    11    26    1
    26    11    27    1
