@<TRIPOS>MOLECULE
IMPHY001672
 41 42 0 0 0
SMALL
GASTEIGER

@<TRIPOS>ATOM
      1 O           4.2690   -0.1550    0.0000 O.3     1  UNL1       -0.3312
      2 O           2.5369   -2.1550    0.0000 O.3     1  UNL1       -0.3865
      3 O           4.2690   -3.1550    0.0000 O.3     1  UNL1       -0.3864
      4 O           6.0010   -0.1550    0.0000 O.3     1  UNL1       -0.4287
      5 O           6.0010   -2.1550    0.0000 O.3     1  UNL1       -0.3829
      6 O           2.5369    0.8450    0.0000 O.3     1  UNL1       -0.3924
      7 O           5.1350    1.3450    0.0000 O.2     1  UNL1       -0.2449
      8 O           9.4651    0.8450    0.0000 O.3     1  UNL1       -0.4914
      9 O           9.4651    2.8450    0.0000 O.3     1  UNL1       -0.5033
     10 C           3.4030   -1.6550    0.0000 C.3     1  UNL1        0.1120
     11 C           4.2690   -2.1550    0.0000 C.3     1  UNL1        0.1152
     12 C           3.4030   -0.6550    0.0000 C.3     1  UNL1        0.1140
     13 C           5.1350   -1.6550    0.0000 C.3     1  UNL1        0.1455
     14 C           5.1350   -0.6550    0.0000 C.3     1  UNL1        0.2341
     15 C           2.5369   -0.1550    0.0000 C.3     1  UNL1        0.0731
     16 C           6.0010    0.8450    0.0000 C.2     1  UNL1        0.3416
     17 C           6.8671    1.3450    0.0000 C.ar    1  UNL1        0.0628
     18 C           7.7331    0.8450    0.0000 C.ar    1  UNL1       -0.0023
     19 C           6.8671    2.3450    0.0000 C.ar    1  UNL1       -0.0441
     20 C           8.5991    1.3450    0.0000 C.ar    1  UNL1        0.1620
     21 C           7.7331    2.8450    0.0000 C.ar    1  UNL1       -0.0157
     22 C           8.5991    2.3450    0.0000 C.ar    1  UNL1        0.1585
     23 C          10.3312    1.3450    0.0000 C.3     1  UNL1        0.0790
     24 H           3.4030   -2.2750    0.0000 H       1  UNL1        0.0647
     25 H           4.8059   -2.4650    0.0000 H       1  UNL1        0.0648
     26 H           3.4030   -0.0350    0.0000 H       1  UNL1        0.0647
     27 H           5.6720   -1.3450    0.0000 H       1  UNL1        0.0683
     28 H           5.1350   -0.0350    0.0000 H       1  UNL1        0.1085
     29 H           1.9264   -0.0473    0.0000 H       1  UNL1        0.0584
     30 H           2.3249   -0.7376    0.0000 H       1  UNL1        0.0584
     31 H           2.0000   -1.8450    0.0000 H       1  UNL1        0.2100
     32 H           3.7320   -3.4650    0.0000 H       1  UNL1        0.2100
     33 H           6.5380   -1.8450    0.0000 H       1  UNL1        0.2102
     34 H           2.0000    1.1550    0.0000 H       1  UNL1        0.2095
     35 H           7.7331    0.2250    0.0000 H       1  UNL1        0.0663
     36 H           6.3301    2.6550    0.0000 H       1  UNL1        0.0627
     37 H           7.7331    3.4650    0.0000 H       1  UNL1        0.0655
     38 H           9.4651    3.4650    0.0000 H       1  UNL1        0.2923
     39 H          10.6412    0.8081    0.0000 H       1  UNL1        0.0660
     40 H          10.8681    1.6550    0.0000 H       1  UNL1        0.0660
     41 H          10.0212    1.8819    0.0000 H       1  UNL1        0.0660
@<TRIPOS>BOND
     1     1    12    1
     2     1    14    1
     3    10     2    1
     4     2    31    1
     5    11     3    1
     6     3    32    1
     7    14     4    1
     8     4    16    1
     9    13     5    1
    10     5    33    1
    11     6    15    1
    12     6    34    1
    13     7    16    2
    14     8    20    1
    15     8    23    1
    16     9    22    1
    17     9    38    1
    18    10    11    1
    19    10    12    1
    20    10    24    1
    21    11    13    1
    22    11    25    1
    23    12    15    1
    24    12    26    1
    25    13    14    1
    26    13    27    1
    27    14    28    1
    28    15    29    1
    29    15    30    1
    30    16    17    1
    31    17    18   ar
    32    17    19   ar
    33    18    20   ar
    34    18    35    1
    35    19    21   ar
    36    19    36    1
    37    20    22   ar
    38    21    22   ar
    39    21    37    1
    40    23    39    1
    41    23    40    1
    42    23    41    1
