@<TRIPOS>MOLECULE
IMPHY003174
 15 15 0 0 0
SMALL
GASTEIGER

@<TRIPOS>ATOM
      1 O           5.0929   -0.6056    0.0000 O.2     1  UNL1       -0.4548
      2 O           2.5896    0.3423    0.0000 O.3     1  UNL1       -0.3873
      3 O           7.5961    0.3423    0.0000 O.2     1  UNL1       -0.2924
      4 C           4.2839   -0.0178    0.0000 C.ar    1  UNL1        0.1311
      5 C           4.5929    0.9333    0.0000 C.ar    1  UNL1       -0.0177
      6 C           3.3328   -0.3268    0.0000 C.3     1  UNL1        0.1019
      7 C           5.9019   -0.0178    0.0000 C.ar    1  UNL1        0.1672
      8 C           5.5929    0.9333    0.0000 C.ar    1  UNL1       -0.0129
      9 C           6.8530   -0.3268    0.0000 C.2     1  UNL1        0.1851
     10 H           4.2284    1.4348    0.0000 H       1  UNL1        0.0653
     11 H           2.8442   -0.7085    0.0000 H       1  UNL1        0.0638
     12 H           3.6239   -0.8742    0.0000 H       1  UNL1        0.0638
     13 H           5.9573    1.4348    0.0000 H       1  UNL1        0.0656
     14 H           6.9818   -0.9333    0.0000 H       1  UNL1        0.1114
     15 H           2.0000    0.1507    0.0000 H       1  UNL1        0.2100
@<TRIPOS>BOND
     1     1     4   ar
     2     1     7   ar
     3     2     6    1
     4     2    15    1
     5     3     9    2
     6     4     5   ar
     7     4     6    1
     8     5     8   ar
     9     5    10    1
    10     6    11    1
    11     6    12    1
    12     7     8   ar
    13     7     9    1
    14     8    13    1
    15     9    14    1
