@<TRIPOS>MOLECULE
IMPHY009285
 37 39 0 0 0
SMALL
GASTEIGER

@<TRIPOS>ATOM
      1 N           6.7475   -1.0353    0.0000 N.ar    1  UNL1       -0.2565
      2 C           4.2321    1.6618    0.0000 C.3     1  UNL1       -0.0223
      3 C           3.7543   -0.2867    0.0000 C.3     1  UNL1        0.0000
      4 C           3.4954    0.6792    0.0000 C.3     1  UNL1       -0.0297
      5 C           2.3553   -0.7956    0.0000 C.3     1  UNL1       -0.0428
      6 C           2.0965    0.1704    0.0000 C.3     1  UNL1       -0.0485
      7 C           5.5287    0.3680    0.0000 C.3     1  UNL1       -0.0068
      8 C           4.9753   -1.1524    0.0000 C.ar    1  UNL1       -0.0196
      9 C           4.1275    2.6563    0.0000 C.3     1  UNL1       -0.0587
     10 C           5.1456    2.0685    0.0000 C.3     1  UNL1       -0.0587
     11 C           4.0131   -1.2527    0.0000 C.3     1  UNL1       -0.0550
     12 C           5.8043   -0.5932    0.0000 C.ar    1  UNL1        0.0456
     13 C           5.0319   -2.1925    0.0000 C.ar    1  UNL1       -0.0546
     14 C           5.9646   -2.6563    0.0000 C.ar    1  UNL1       -0.0404
     15 C           6.8281   -2.0739    0.0000 C.ar    1  UNL1        0.0385
     16 C           7.7286   -2.5088    0.0000 C.3     1  UNL1       -0.0224
     17 H           3.2755    1.5002    0.0000 H       1  UNL1        0.0310
     18 H           2.5503   -1.3841    0.0000 H       1  UNL1        0.0274
     19 H           1.7614   -0.9733    0.0000 H       1  UNL1        0.0274
     20 H           1.5026   -0.0074    0.0000 H       1  UNL1        0.0268
     21 H           1.9016    0.7589    0.0000 H       1  UNL1        0.0268
     22 H           5.5337    0.9880    0.0000 H       1  UNL1        0.0331
     23 H           6.1430    0.4518    0.0000 H       1  UNL1        0.0331
     24 H           4.8934    2.6349    0.0000 H       1  UNL1        0.0235
     25 H           5.7120    2.3207    0.0000 H       1  UNL1        0.0235
     26 H           3.5109    2.5915    0.0000 H       1  UNL1        0.0235
     27 H           4.0627    3.2729    0.0000 H       1  UNL1        0.0235
     28 H           4.7441    2.7211    0.0000 H       1  UNL1        0.0235
     29 H           5.3978    1.5021    0.0000 H       1  UNL1        0.0235
     30 H           4.6120   -1.0922    0.0000 H       1  UNL1        0.0238
     31 H           4.1736   -1.8515    0.0000 H       1  UNL1        0.0238
     32 H           3.4142   -1.4131    0.0000 H       1  UNL1        0.0238
     33 H           4.5140   -2.5332    0.0000 H       1  UNL1        0.0622
     34 H           6.0055   -3.2750    0.0000 H       1  UNL1        0.0635
     35 H           7.9983   -1.9504    0.0000 H       1  UNL1        0.0292
     36 H           8.2869   -2.7784    0.0000 H       1  UNL1        0.0292
     37 H           7.4590   -3.0670    0.0000 H       1  UNL1        0.0292
@<TRIPOS>BOND
     1     1    12   ar
     2     1    15   ar
     3     2     3    1
     4     2     4    1
     5     2     9    1
     6     2    10    1
     7     3     5    1
     8     3     8    1
     9     3    11    1
    10     4     6    1
    11     4     7    1
    12     4    17    1
    13     5     6    1
    14     5    18    1
    15     5    19    1
    16     6    20    1
    17     6    21    1
    18     7    12    1
    19     7    22    1
    20     7    23    1
    21     8    12   ar
    22     8    13   ar
    23     9    26    1
    24     9    27    1
    25     9    28    1
    26    10    24    1
    27    10    25    1
    28    10    29    1
    29    11    30    1
    30    11    31    1
    31    11    32    1
    32    13    14   ar
    33    13    33    1
    34    14    15   ar
    35    14    34    1
    36    15    16    1
    37    16    35    1
    38    16    36    1
    39    16    37    1
