@<TRIPOS>MOLECULE
IMPHY015475
 63 62 0 0 0
SMALL
GASTEIGER

@<TRIPOS>ATOM
      1 O          15.8564    0.2500    0.0000 O.3     1  UNL1       -0.4567
      2 O          16.7224   -1.2500    0.0000 O.2     1  UNL1       -0.2376
      3 O          18.4545   -0.2500    0.0000 O.3     1  UNL1       -0.4525
      4 O          17.5885    1.2500    0.0000 O.2     1  UNL1       -0.2376
      5 C           8.9282    0.2500    0.0000 C.3     1  UNL1       -0.0531
      6 C           8.0622   -0.2500    0.0000 C.3     1  UNL1       -0.0531
      7 C           9.7942   -0.2500    0.0000 C.3     1  UNL1       -0.0531
      8 C           7.1962    0.2500    0.0000 C.3     1  UNL1       -0.0531
      9 C          10.6603    0.2500    0.0000 C.3     1  UNL1       -0.0531
     10 C           6.3301   -0.2500    0.0000 C.3     1  UNL1       -0.0531
     11 C          11.5263   -0.2500    0.0000 C.3     1  UNL1       -0.0531
     12 C           5.4641    0.2500    0.0000 C.3     1  UNL1       -0.0531
     13 C          12.3923    0.2500    0.0000 C.3     1  UNL1       -0.0530
     14 C           4.5981   -0.2500    0.0000 C.3     1  UNL1       -0.0531
     15 C          13.2583   -0.2500    0.0000 C.3     1  UNL1       -0.0500
     16 C           3.7320    0.2500    0.0000 C.3     1  UNL1       -0.0533
     17 C          14.1244    0.2500    0.0000 C.3     1  UNL1       -0.0185
     18 C           2.8660   -0.2500    0.0000 C.3     1  UNL1       -0.0559
     19 C          14.9904   -0.2500    0.0000 C.3     1  UNL1        0.0930
     20 C           2.0000    0.2500    0.0000 C.3     1  UNL1       -0.0653
     21 C          16.7224   -0.2500    0.0000 C.2     1  UNL1        0.4173
     22 C          17.5885    0.2500    0.0000 C.2     1  UNL1        0.4176
     23 C          19.3205    0.2500    0.0000 C.3     1  UNL1        0.1110
     24 C          20.1865   -0.2500    0.0000 C.2     1  UNL1       -0.0541
     25 C          21.0526    0.2500    0.0000 C.2     1  UNL1       -0.0995
     26 H           9.3267    0.7249    0.0000 H       1  UNL1        0.0265
     27 H           8.5297    0.7249    0.0000 H       1  UNL1        0.0265
     28 H           7.6636   -0.7249    0.0000 H       1  UNL1        0.0265
     29 H           8.4607   -0.7249    0.0000 H       1  UNL1        0.0265
     30 H           9.3957   -0.7249    0.0000 H       1  UNL1        0.0265
     31 H          10.1928   -0.7249    0.0000 H       1  UNL1        0.0265
     32 H           7.5947    0.7249    0.0000 H       1  UNL1        0.0265
     33 H           6.7976    0.7249    0.0000 H       1  UNL1        0.0265
     34 H          11.0588    0.7249    0.0000 H       1  UNL1        0.0265
     35 H          10.2617    0.7249    0.0000 H       1  UNL1        0.0265
     36 H           5.9316   -0.7249    0.0000 H       1  UNL1        0.0265
     37 H           6.7287   -0.7249    0.0000 H       1  UNL1        0.0265
     38 H          11.1278   -0.7249    0.0000 H       1  UNL1        0.0265
     39 H          11.9248   -0.7249    0.0000 H       1  UNL1        0.0265
     40 H           5.8626    0.7249    0.0000 H       1  UNL1        0.0265
     41 H           5.0656    0.7249    0.0000 H       1  UNL1        0.0265
     42 H          12.7908    0.7249    0.0000 H       1  UNL1        0.0265
     43 H          11.9938    0.7249    0.0000 H       1  UNL1        0.0265
     44 H           4.1996   -0.7249    0.0000 H       1  UNL1        0.0265
     45 H           4.9966   -0.7249    0.0000 H       1  UNL1        0.0265
     46 H          12.8598   -0.7249    0.0000 H       1  UNL1        0.0266
     47 H          13.6569   -0.7249    0.0000 H       1  UNL1        0.0266
     48 H           4.1306    0.7249    0.0000 H       1  UNL1        0.0265
     49 H           3.3335    0.7249    0.0000 H       1  UNL1        0.0265
     50 H          14.5229    0.7249    0.0000 H       1  UNL1        0.0298
     51 H          13.7258    0.7249    0.0000 H       1  UNL1        0.0298
     52 H           2.4675   -0.7249    0.0000 H       1  UNL1        0.0263
     53 H           3.2646   -0.7249    0.0000 H       1  UNL1        0.0263
     54 H          14.5919   -0.7249    0.0000 H       1  UNL1        0.0697
     55 H          15.3889   -0.7249    0.0000 H       1  UNL1        0.0697
     56 H           2.3100    0.7869    0.0000 H       1  UNL1        0.0230
     57 H           1.4631    0.5600    0.0000 H       1  UNL1        0.0230
     58 H           1.6900   -0.2869    0.0000 H       1  UNL1        0.0230
     59 H          19.7190    0.7249    0.0000 H       1  UNL1        0.0743
     60 H          18.9220    0.7249    0.0000 H       1  UNL1        0.0743
     61 H          20.1865   -0.8700    0.0000 H       1  UNL1        0.0600
     62 H          21.5895   -0.0600    0.0000 H       1  UNL1        0.0533
     63 H          21.0526    0.8700    0.0000 H       1  UNL1        0.0533
@<TRIPOS>BOND
     1     1    19    1
     2     1    21    1
     3     2    21    2
     4     3    22    1
     5     3    23    1
     6     4    22    2
     7     5     6    1
     8     5     7    1
     9     5    26    1
    10     5    27    1
    11     6     8    1
    12     6    28    1
    13     6    29    1
    14     7     9    1
    15     7    30    1
    16     7    31    1
    17     8    10    1
    18     8    32    1
    19     8    33    1
    20     9    11    1
    21     9    34    1
    22     9    35    1
    23    10    12    1
    24    10    36    1
    25    10    37    1
    26    11    13    1
    27    11    38    1
    28    11    39    1
    29    12    14    1
    30    12    40    1
    31    12    41    1
    32    13    15    1
    33    13    42    1
    34    13    43    1
    35    14    16    1
    36    14    44    1
    37    14    45    1
    38    15    17    1
    39    15    46    1
    40    15    47    1
    41    16    18    1
    42    16    48    1
    43    16    49    1
    44    17    19    1
    45    17    50    1
    46    17    51    1
    47    18    20    1
    48    18    52    1
    49    18    53    1
    50    19    54    1
    51    19    55    1
    52    20    56    1
    53    20    57    1
    54    20    58    1
    55    21    22    1
    56    23    24    1
    57    23    59    1
    58    23    60    1
    59    24    25    2
    60    24    61    1
    61    25    62    1
    62    25    63    1
