@<TRIPOS>MOLECULE
IMPHY007271
 34 36 0 0 0
SMALL
GASTEIGER

@<TRIPOS>ATOM
      1 O           2.5836   -2.0894    0.0000 O.2     1  UNL1       -0.4626
      2 C           5.2778    1.2846    0.0000 C.3     1  UNL1       -0.0396
      3 C           4.3798    0.7569    0.0000 C.3     1  UNL1       -0.0241
      4 C           6.1799    0.7638    0.0000 C.3     1  UNL1       -0.0462
      5 C           4.3958   -0.2846    0.0000 C.ar    1  UNL1       -0.0327
      6 C           6.1719   -0.2778    0.0000 C.3     1  UNL1       -0.0269
      7 C           5.2619   -0.7846    0.0000 C.ar    1  UNL1       -0.0405
      8 C           3.5298   -0.7846    0.0000 C.ar    1  UNL1        0.0265
      9 C           5.2619   -1.7846    0.0000 C.ar    1  UNL1       -0.0435
     10 C           5.2740    2.2846    0.0000 C.3     1  UNL1       -0.0621
     11 C           3.5298   -1.7846    0.0000 C.ar    1  UNL1        0.1356
     12 C           4.3958   -2.2846    0.0000 C.ar    1  UNL1       -0.0156
     13 C           2.5836   -0.4799    0.0000 C.ar    1  UNL1       -0.0047
     14 C           6.1279   -2.2846    0.0000 C.3     1  UNL1       -0.0393
     15 C           2.0000   -1.2846    0.0000 C.ar    1  UNL1        0.0960
     16 C           2.2729    0.4706    0.0000 C.3     1  UNL1       -0.0361
     17 H           5.8142    1.5957    0.0000 H       1  UNL1        0.0301
     18 H           4.1618    1.3373    0.0000 H       1  UNL1        0.0316
     19 H           3.7706    0.6414    0.0000 H       1  UNL1        0.0316
     20 H           6.7899    0.6530    0.0000 H       1  UNL1        0.0271
     21 H           6.3935    1.3459    0.0000 H       1  UNL1        0.0271
     22 H           6.3764   -0.8631    0.0000 H       1  UNL1        0.0313
     23 H           6.7835   -0.1764    0.0000 H       1  UNL1        0.0313
     24 H           5.8940    2.2870    0.0000 H       1  UNL1        0.0233
     25 H           5.2716    2.9046    0.0000 H       1  UNL1        0.0233
     26 H           4.6540    2.2822    0.0000 H       1  UNL1        0.0233
     27 H           4.3958   -2.9046    0.0000 H       1  UNL1        0.0657
     28 H           5.8179   -2.8216    0.0000 H       1  UNL1        0.0278
     29 H           6.6648   -2.5946    0.0000 H       1  UNL1        0.0278
     30 H           6.4379   -1.7477    0.0000 H       1  UNL1        0.0278
     31 H           1.3800   -1.2846    0.0000 H       1  UNL1        0.1032
     32 H           2.8623    0.6632    0.0000 H       1  UNL1        0.0279
     33 H           2.0803    1.0600    0.0000 H       1  UNL1        0.0279
     34 H           1.6836    0.2780    0.0000 H       1  UNL1        0.0279
@<TRIPOS>BOND
     1     1    11   ar
     2     1    15   ar
     3     2     3    1
     4     2     4    1
     5     2    10    1
     6     2    17    1
     7     3     5    1
     8     3    18    1
     9     3    19    1
    10     4     6    1
    11     4    20    1
    12     4    21    1
    13     5     7   ar
    14     5     8   ar
    15     6     7    1
    16     6    22    1
    17     6    23    1
    18     7     9   ar
    19     8    11   ar
    20     8    13   ar
    21     9    12   ar
    22     9    14    1
    23    10    24    1
    24    10    25    1
    25    10    26    1
    26    11    12   ar
    27    12    27    1
    28    13    15   ar
    29    13    16    1
    30    14    28    1
    31    14    29    1
    32    14    30    1
    33    15    31    1
    34    16    32    1
    35    16    33    1
    36    16    34    1
