@<TRIPOS>MOLECULE
IMPHY008751
 145 152 0 0 0
SMALL
GASTEIGER

@<TRIPOS>ATOM
      1 O           6.8671   -2.3970    0.0000 O.3     1  UNL1       -0.3448
      2 O           8.6424    6.9575    0.0000 O.3     1  UNL1       -0.3912
      3 O           9.3112   -1.7053    0.0000 O.3     1  UNL1       -0.3944
      4 O           5.8747    8.1749    0.0000 O.3     1  UNL1       -0.3945
      5 O           5.1350   -2.3970    0.0000 O.3     1  UNL1       -0.3315
      6 O           6.8671   -4.3970    0.0000 O.3     1  UNL1       -0.3377
      7 O           5.1350   -5.3970    0.0000 O.3     1  UNL1       -0.3864
      8 O           3.4030   -4.3970    0.0000 O.3     1  UNL1       -0.3860
      9 O           6.0010   -5.8970    0.0000 O.3     1  UNL1       -0.3405
     10 O           2.5369   -2.8970    0.0000 O.3     1  UNL1       -0.4788
     11 O           3.4030   -1.3970    0.0000 O.2     1  UNL1       -0.2480
     12 O           8.5991   -5.3970    0.0000 O.3     1  UNL1       -0.3378
     13 O           8.5991   -7.3970    0.0000 O.3     1  UNL1       -0.3864
     14 O           6.8671   -8.3970    0.0000 O.3     1  UNL1       -0.3865
     15 O           9.4651   -6.8970    0.0000 O.3     1  UNL1       -0.3431
     16 O           5.1350   -8.3970    0.0000 O.3     1  UNL1       -0.3924
     17 O          10.3312   -4.3970    0.0000 O.3     1  UNL1       -0.3841
     18 O          12.0632   -5.3970    0.0000 O.3     1  UNL1       -0.3864
     19 O          12.0632   -7.3970    0.0000 O.3     1  UNL1       -0.3866
     20 C           7.7681    2.3032    0.0000 C.3     1  UNL1       -0.0194
     21 C           6.9040    1.7999    0.0000 C.3     1  UNL1       -0.0257
     22 C           6.8920    0.7583    0.0000 C.3     1  UNL1       -0.0249
     23 C           7.7643    3.3032    0.0000 C.3     1  UNL1       -0.0051
     24 C           7.7920    0.2340    0.0000 C.3     1  UNL1       -0.0255
     25 C           8.6801    1.7999    0.0000 C.3     1  UNL1       -0.0463
     26 C           6.8963    3.7999    0.0000 C.2     1  UNL1       -0.0633
     27 C           7.8046   -0.8509    0.0000 C.3     1  UNL1        0.0206
     28 C           8.6921    0.7583    0.0000 C.3     1  UNL1       -0.0485
     29 C           6.8762    4.8413    0.0000 C.3     1  UNL1       -0.0111
     30 C           7.7722    5.3725    0.0000 C.3     1  UNL1        0.0005
     31 C           6.0361    2.2966    0.0000 C.3     1  UNL1       -0.0306
     32 C           8.6723    3.8136    0.0000 C.3     1  UNL1       -0.0428
     33 C           5.9421    0.2340    0.0000 C.3     1  UNL1       -0.0447
     34 C           8.6763    4.8552    0.0000 C.3     1  UNL1       -0.0439
     35 C           8.7522    2.4807    0.0000 C.3     1  UNL1       -0.0585
     36 C           6.8671   -1.3970    0.0000 C.3     1  UNL1        0.0695
     37 C           6.0322    3.2965    0.0000 C.2     1  UNL1       -0.0836
     38 C           6.0279    1.2617    0.0000 C.3     1  UNL1       -0.0590
     39 C           5.9295   -0.8509    0.0000 C.3     1  UNL1       -0.0254
     40 C           8.7497    3.1334    0.0000 C.3     1  UNL1       -0.0553
     41 C           5.9223    5.3583    0.0000 C.3     1  UNL1       -0.0383
     42 C           7.7764    6.4575    0.0000 C.3     1  UNL1        0.0617
     43 C           5.9014    6.4431    0.0000 C.3     1  UNL1       -0.0060
     44 C           6.8347    6.9964    0.0000 C.3     1  UNL1       -0.0188
     45 C           8.8046   -0.8432    0.0000 C.3     1  UNL1        0.0522
     46 C           8.3113   -1.7130    0.0000 C.3     1  UNL1       -0.0548
     47 C           8.6324    5.8825    0.0000 C.3     1  UNL1       -0.0567
     48 C           5.3881    7.3013    0.0000 C.3     1  UNL1        0.0497
     49 C           4.9015    6.4276    0.0000 C.3     1  UNL1       -0.0574
     50 C           6.0010   -2.8970    0.0000 C.3     1  UNL1        0.1892
     51 C           6.0010   -3.8970    0.0000 C.3     1  UNL1        0.1407
     52 C           5.1350   -4.3970    0.0000 C.3     1  UNL1        0.1149
     53 C           4.2690   -2.8970    0.0000 C.3     1  UNL1        0.1859
     54 C           4.2690   -3.8970    0.0000 C.3     1  UNL1        0.1202
     55 C           6.8671   -5.3970    0.0000 C.3     1  UNL1        0.1889
     56 C           3.4030   -2.3970    0.0000 C.2     1  UNL1        0.3367
     57 C           7.7331   -5.8970    0.0000 C.3     1  UNL1        0.1406
     58 C           7.7331   -6.8970    0.0000 C.3     1  UNL1        0.1144
     59 C           6.0010   -6.8970    0.0000 C.3     1  UNL1        0.1130
     60 C           6.8671   -7.3970    0.0000 C.3     1  UNL1        0.1119
     61 C           5.1350   -7.3970    0.0000 C.3     1  UNL1        0.0730
     62 C           9.4651   -5.8970    0.0000 C.3     1  UNL1        0.1884
     63 C          10.3312   -5.3970    0.0000 C.3     1  UNL1        0.1341
     64 C          11.1972   -5.8970    0.0000 C.3     1  UNL1        0.1140
     65 C          10.3312   -7.3970    0.0000 C.3     1  UNL1        0.0873
     66 C          11.1972   -6.8970    0.0000 C.3     1  UNL1        0.1095
     67 C          10.3312   -8.3970    0.0000 C.3     1  UNL1       -0.0361
     68 H           7.6385    1.3721    0.0000 H       1  UNL1        0.0315
     69 H           8.5314   -0.1853    0.0000 H       1  UNL1        0.0313
     70 H           9.2921    1.7009    0.0000 H       1  UNL1        0.0271
     71 H           8.8824    2.3860    0.0000 H       1  UNL1        0.0271
     72 H           8.9079    0.1771    0.0000 H       1  UNL1        0.0268
     73 H           9.3017    0.8715    0.0000 H       1  UNL1        0.0268
     74 H           6.1502    4.3994    0.0000 H       1  UNL1        0.0352
     75 H           5.4251    2.4019    0.0000 H       1  UNL1        0.0310
     76 H           5.8263    1.7131    0.0000 H       1  UNL1        0.0310
     77 H           8.8791    3.2291    0.0000 H       1  UNL1        0.0274
     78 H           9.2836    3.9173    0.0000 H       1  UNL1        0.0274
     79 H           5.7398    0.8201    0.0000 H       1  UNL1        0.0271
     80 H           5.3300    0.1350    0.0000 H       1  UNL1        0.0271
     81 H           9.2868    4.7467    0.0000 H       1  UNL1        0.0272
     82 H           8.8876    5.4381    0.0000 H       1  UNL1        0.0272
     83 H           8.8623    1.8705    0.0000 H       1  UNL1        0.0235
     84 H           9.3624    2.5907    0.0000 H       1  UNL1        0.0235
     85 H           8.6422    3.0908    0.0000 H       1  UNL1        0.0235
     86 H           7.4046   -1.7060    0.0000 H       1  UNL1        0.0603
     87 H           5.4941    3.6045    0.0000 H       1  UNL1        0.0572
     88 H           6.3400    1.7974    0.0000 H       1  UNL1        0.0235
     89 H           5.4922    1.5737    0.0000 H       1  UNL1        0.0235
     90 H           5.7158    0.7259    0.0000 H       1  UNL1        0.0235
     91 H           5.3199   -0.7377    0.0000 H       1  UNL1        0.0290
     92 H           5.7137   -1.4321    0.0000 H       1  UNL1        0.0290
     93 H           8.6444    2.5224    0.0000 H       1  UNL1        0.0238
     94 H           9.3607    3.0281    0.0000 H       1  UNL1        0.0238
     95 H           8.8550    3.7444    0.0000 H       1  UNL1        0.0238
     96 H           5.3095    5.4526    0.0000 H       1  UNL1        0.0277
     97 H           5.7246    4.7706    0.0000 H       1  UNL1        0.0277
     98 H           7.7752    7.0775    0.0000 H       1  UNL1        0.0599
     99 H           7.2302    7.4739    0.0000 H       1  UNL1        0.0296
    100 H           6.4319    7.4677    0.0000 H       1  UNL1        0.0296
    101 H           9.3855   -0.6266    0.0000 H       1  UNL1        0.0563
    102 H           8.6922   -0.2334    0.0000 H       1  UNL1        0.0563
    103 H           7.7767   -2.0272    0.0000 H       1  UNL1        0.0237
    104 H           8.6254   -2.2476    0.0000 H       1  UNL1        0.0237
    105 H           8.8458   -1.3989    0.0000 H       1  UNL1        0.0237
    106 H           8.9486    5.3492    0.0000 H       1  UNL1        0.0236
    107 H           9.1657    6.1987    0.0000 H       1  UNL1        0.0236
    108 H           8.3162    6.4158    0.0000 H       1  UNL1        0.0236
    109 H           4.9071    7.6924    0.0000 H       1  UNL1        0.0562
    110 H           4.9194    6.8955    0.0000 H       1  UNL1        0.0562
    111 H           4.8920    7.0476    0.0000 H       1  UNL1        0.0236
    112 H           4.2816    6.4181    0.0000 H       1  UNL1        0.0236
    113 H           4.9111    5.8077    0.0000 H       1  UNL1        0.0236
    114 H           8.6424    7.5775    0.0000 H       1  UNL1        0.2098
    115 H           6.0010   -2.2770    0.0000 H       1  UNL1        0.0938
    116 H           9.9312   -1.7005    0.0000 H       1  UNL1        0.2094
    117 H           6.5380   -3.5870    0.0000 H       1  UNL1        0.0675
    118 H           5.5565    8.7070    0.0000 H       1  UNL1        0.2094
    119 H           5.6720   -4.7070    0.0000 H       1  UNL1        0.0648
    120 H           4.2690   -2.2770    0.0000 H       1  UNL1        0.0741
    121 H           3.7320   -3.5870    0.0000 H       1  UNL1        0.0652
    122 H           7.4040   -5.0870    0.0000 H       1  UNL1        0.0938
    123 H           4.5981   -5.7070    0.0000 H       1  UNL1        0.2100
    124 H           3.4030   -5.0170    0.0000 H       1  UNL1        0.2100
    125 H           8.2700   -6.2070    0.0000 H       1  UNL1        0.0675
    126 H           7.7331   -7.5170    0.0000 H       1  UNL1        0.0648
    127 H           5.4641   -6.5870    0.0000 H       1  UNL1        0.0647
    128 H           2.0000   -2.5870    0.0000 H       1  UNL1        0.2951
    129 H           6.3301   -7.7070    0.0000 H       1  UNL1        0.0647
    130 H           4.9230   -6.8144    0.0000 H       1  UNL1        0.0584
    131 H           4.5244   -7.5047    0.0000 H       1  UNL1        0.0584
    132 H           9.4651   -5.2770    0.0000 H       1  UNL1        0.0938
    133 H           8.5991   -8.0170    0.0000 H       1  UNL1        0.2100
    134 H           7.4040   -8.7070    0.0000 H       1  UNL1        0.2100
    135 H          10.8681   -5.0870    0.0000 H       1  UNL1        0.0671
    136 H          11.7341   -6.2070    0.0000 H       1  UNL1        0.0648
    137 H           4.5981   -8.7070    0.0000 H       1  UNL1        0.2095
    138 H           9.7942   -7.7070    0.0000 H       1  UNL1        0.0621
    139 H          11.1972   -7.5170    0.0000 H       1  UNL1        0.0646
    140 H          10.8681   -4.0870    0.0000 H       1  UNL1        0.2101
    141 H           9.7112   -8.3970    0.0000 H       1  UNL1        0.0255
    142 H          10.3312   -9.0170    0.0000 H       1  UNL1        0.0255
    143 H          10.9512   -8.3970    0.0000 H       1  UNL1        0.0255
    144 H          12.6002   -5.7070    0.0000 H       1  UNL1        0.2100
    145 H          12.0632   -8.0170    0.0000 H       1  UNL1        0.2100
@<TRIPOS>BOND
     1    36     1    1
     2    50     1    1
     3    42     2    1
     4     2   114    1
     5     3    45    1
     6     3   116    1
     7     4    48    1
     8     4   118    1
     9     5    50    1
    10     5    53    1
    11    51     6    1
    12    55     6    1
    13    52     7    1
    14     7   123    1
    15    54     8    1
    16     8   124    1
    17     9    55    1
    18     9    59    1
    19    10    56    1
    20    10   128    1
    21    11    56    2
    22    57    12    1
    23    62    12    1
    24    58    13    1
    25    13   133    1
    26    60    14    1
    27    14   134    1
    28    15    62    1
    29    15    65    1
    30    16    61    1
    31    16   137    1
    32    63    17    1
    33    17   140    1
    34    64    18    1
    35    18   144    1
    36    66    19    1
    37    19   145    1
    38    20    21    1
    39    20    23    1
    40    20    25    1
    41    20    35    1
    42    21    22    1
    43    21    31    1
    44    21    68    1
    45    22    24    1
    46    22    33    1
    47    22    38    1
    48    23    26    1
    49    23    32    1
    50    23    40    1
    51    24    27    1
    52    24    28    1
    53    24    69    1
    54    25    28    1
    55    25    70    1
    56    25    71    1
    57    26    29    1
    58    26    37    2
    59    27    36    1
    60    27    45    1
    61    27    46    1
    62    28    72    1
    63    28    73    1
    64    29    30    1
    65    29    41    1
    66    29    74    1
    67    30    34    1
    68    30    42    1
    69    30    47    1
    70    31    37    1
    71    31    75    1
    72    31    76    1
    73    32    34    1
    74    32    77    1
    75    32    78    1
    76    33    39    1
    77    33    79    1
    78    33    80    1
    79    34    81    1
    80    34    82    1
    81    35    83    1
    82    35    84    1
    83    35    85    1
    84    36    39    1
    85    36    86    1
    86    37    87    1
    87    38    88    1
    88    38    89    1
    89    38    90    1
    90    39    91    1
    91    39    92    1
    92    40    93    1
    93    40    94    1
    94    40    95    1
    95    41    43    1
    96    41    96    1
    97    41    97    1
    98    42    44    1
    99    42    98    1
   100    43    44    1
   101    43    48    1
   102    43    49    1
   103    44    99    1
   104    44   100    1
   105    45   101    1
   106    45   102    1
   107    46   103    1
   108    46   104    1
   109    46   105    1
   110    47   106    1
   111    47   107    1
   112    47   108    1
   113    48   109    1
   114    48   110    1
   115    49   111    1
   116    49   112    1
   117    49   113    1
   118    50    51    1
   119    50   115    1
   120    51    52    1
   121    51   117    1
   122    52    54    1
   123    52   119    1
   124    53    54    1
   125    53    56    1
   126    53   120    1
   127    54   121    1
   128    55    57    1
   129    55   122    1
   130    57    58    1
   131    57   125    1
   132    58    60    1
   133    58   126    1
   134    59    60    1
   135    59    61    1
   136    59   127    1
   137    60   129    1
   138    61   130    1
   139    61   131    1
   140    62    63    1
   141    62   132    1
   142    63    64    1
   143    63   135    1
   144    64    66    1
   145    64   136    1
   146    65    66    1
   147    65    67    1
   148    65   138    1
   149    66   139    1
   150    67   141    1
   151    67   142    1
   152    67   143    1
