@<TRIPOS>MOLECULE
IMPHY006955
 16 15 0 0 0
SMALL
GASTEIGER

@<TRIPOS>ATOM
      1 O           2.5369    0.7500    0.0000 O.3     1  UNL1       -0.3920
      2 O           6.0010    0.7500    0.0000 O.3     1  UNL1       -0.3949
      3 C           3.4030    0.2500    0.0000 C.3     1  UNL1        0.0545
      4 C           4.2690    0.7500    0.0000 C.3     1  UNL1       -0.0038
      5 C           5.1350    0.2500    0.0000 C.3     1  UNL1        0.0465
      6 C           3.4030   -0.7500    0.0000 C.3     1  UNL1       -0.0389
      7 H           3.4030    0.8700    0.0000 H       1  UNL1        0.0591
      8 H           4.6675    1.2250    0.0000 H       1  UNL1        0.0312
      9 H           3.8705    1.2250    0.0000 H       1  UNL1        0.0312
     10 H           4.7365   -0.2249    0.0000 H       1  UNL1        0.0558
     11 H           5.5335   -0.2249    0.0000 H       1  UNL1        0.0558
     12 H           2.7830   -0.7500    0.0000 H       1  UNL1        0.0254
     13 H           3.4030   -1.3700    0.0000 H       1  UNL1        0.0254
     14 H           4.0230   -0.7500    0.0000 H       1  UNL1        0.0254
     15 H           2.0000    0.4400    0.0000 H       1  UNL1        0.2098
     16 H           6.5380    0.4400    0.0000 H       1  UNL1        0.2094
@<TRIPOS>BOND
     1     1     3    1
     2     1    15    1
     3     2     5    1
     4     2    16    1
     5     3     4    1
     6     3     6    1
     7     3     7    1
     8     4     5    1
     9     4     8    1
    10     4     9    1
    11     5    10    1
    12     5    11    1
    13     6    12    1
    14     6    13    1
    15     6    14    1
