@<TRIPOS>MOLECULE
IMPHY011072
 26 26 0 0 0
SMALL
GASTEIGER

@<TRIPOS>ATOM
      1 O           2.0000    1.0000    0.0000 O.2     1  UNL1       -0.2924
      2 O           4.5981   -2.5000    0.0000 O.2     1  UNL1       -0.2960
      3 C           3.7320    1.0000    0.0000 C.3     1  UNL1        0.0242
      4 C           3.7320    2.0000    0.0000 C.3     1  UNL1       -0.0369
      5 C           4.5981    0.5000    0.0000 C.3     1  UNL1       -0.0389
      6 C           4.5981   -0.5000    0.0000 C.3     1  UNL1       -0.0239
      7 C           2.8660    0.5000    0.0000 C.2     1  UNL1        0.1597
      8 C           4.5981    2.5000    0.0000 C.3     1  UNL1       -0.0620
      9 C           2.8660    2.5000    0.0000 C.3     1  UNL1       -0.0620
     10 C           3.7320   -1.0000    0.0000 C.2     1  UNL1       -0.0049
     11 C           2.8660   -0.5000    0.0000 C.2     1  UNL1       -0.0127
     12 C           3.7320   -2.0000    0.0000 C.2     1  UNL1        0.1464
     13 H           4.2690    1.3100    0.0000 H       1  UNL1        0.0383
     14 H           3.7320    2.6200    0.0000 H       1  UNL1        0.0302
     15 H           5.2087    0.3923    0.0000 H       1  UNL1        0.0275
     16 H           4.8101    1.0826    0.0000 H       1  UNL1        0.0275
     17 H           4.8101   -1.0826    0.0000 H       1  UNL1        0.0314
     18 H           5.2087   -0.3923    0.0000 H       1  UNL1        0.0314
     19 H           4.9081    1.9631    0.0000 H       1  UNL1        0.0233
     20 H           5.1350    2.8100    0.0000 H       1  UNL1        0.0233
     21 H           4.2881    3.0369    0.0000 H       1  UNL1        0.0233
     22 H           3.1760    3.0369    0.0000 H       1  UNL1        0.0233
     23 H           2.3291    2.8100    0.0000 H       1  UNL1        0.0233
     24 H           2.5560    1.9631    0.0000 H       1  UNL1        0.0233
     25 H           2.3291   -0.8100    0.0000 H       1  UNL1        0.0656
     26 H           3.1951   -2.3100    0.0000 H       1  UNL1        0.1078
@<TRIPOS>BOND
     1     1     7    2
     2     2    12    2
     3     3     4    1
     4     3     5    1
     5     3     7    1
     6     3    13    1
     7     4     8    1
     8     4     9    1
     9     4    14    1
    10     5     6    1
    11     5    15    1
    12     5    16    1
    13     6    10    1
    14     6    17    1
    15     6    18    1
    16     7    11    1
    17     8    19    1
    18     8    20    1
    19     8    21    1
    20     9    22    1
    21     9    23    1
    22     9    24    1
    23    10    11    2
    24    10    12    1
    25    11    25    1
    26    12    26    1
