@<TRIPOS>MOLECULE
IMPHY005848
 23 25 0 0 0
SMALL
GASTEIGER

@<TRIPOS>ATOM
      1 O           3.4534   -2.3019    0.0000 O.2     1  UNL1       -0.2672
      2 N           6.0678   -0.7673    0.0000 N.ar    1  UNL1       -0.2542
      3 N           2.5357   -0.7881    0.0000 N.ar    1  UNL1       -0.3285
      4 C           4.3358    0.2327    0.0000 C.ar    1  UNL1       -0.0007
      5 C           5.2018    0.7327    0.0000 C.ar    1  UNL1        0.0083
      6 C           4.3358   -0.7673    0.0000 C.ar    1  UNL1        0.0651
      7 C           6.0678    0.2327    0.0000 C.ar    1  UNL1        0.0716
      8 C           3.4418    0.7673    0.0000 C.ar    1  UNL1       -0.0371
      9 C           5.1857    1.7742    0.0000 C.ar    1  UNL1       -0.0520
     10 C           5.2018   -1.2673    0.0000 C.ar    1  UNL1        0.0412
     11 C           3.4418   -1.3020    0.0000 C.ar    1  UNL1        0.2579
     12 C           6.9778    0.7395    0.0000 C.ar    1  UNL1       -0.0357
     13 C           2.5357    0.2535    0.0000 C.ar    1  UNL1        0.0055
     14 C           6.0838    2.3019    0.0000 C.ar    1  UNL1       -0.0611
     15 C           6.9858    1.7811    0.0000 C.ar    1  UNL1       -0.0597
     16 H           3.4490    1.3873    0.0000 H       1  UNL1        0.0638
     17 H           4.6452    2.0779    0.0000 H       1  UNL1        0.0624
     18 H           5.2018   -1.8873    0.0000 H       1  UNL1        0.0837
     19 H           7.5111    0.4233    0.0000 H       1  UNL1        0.0639
     20 H           2.0000    0.5655    0.0000 H       1  UNL1        0.0808
     21 H           2.0000   -1.1002    0.0000 H       1  UNL1        0.1683
     22 H           6.0814    2.9219    0.0000 H       1  UNL1        0.0618
     23 H           7.5240    2.0890    0.0000 H       1  UNL1        0.0618
@<TRIPOS>BOND
     1     1    11    2
     2     2     7   ar
     3     2    10   ar
     4     3    11   ar
     5     3    13   ar
     6     3    21    1
     7     4     5   ar
     8     4     6   ar
     9     4     8   ar
    10     5     7   ar
    11     5     9   ar
    12     6    10   ar
    13     6    11   ar
    14     7    12   ar
    15     8    13   ar
    16     8    16    1
    17     9    14   ar
    18     9    17    1
    19    10    18    1
    20    12    15   ar
    21    12    19    1
    22    13    20    1
    23    14    15   ar
    24    14    22    1
    25    15    23    1
