@<TRIPOS>MOLECULE
IMPHY000123
 42 44 0 0 0
SMALL
GASTEIGER

@<TRIPOS>ATOM
      1 O           4.6660   -1.0000    0.0000 O.2     1  UNL1       -0.4507
      2 O           8.1962   -1.0241    0.0000 O.3     1  UNL1       -0.4946
      3 O           6.4144    2.0346    0.0000 O.3     1  UNL1       -0.5055
      4 O           4.6660    2.0000    0.0000 O.2     1  UNL1       -0.2863
      5 O           2.9176   -2.0346    0.0000 O.3     1  UNL1       -0.5033
      6 C           5.5321    0.5000    0.0000 C.ar    1  UNL1        0.1063
      7 C           7.3321    0.5208    0.0000 C.ar    1  UNL1        0.0402
      8 C           5.5321   -0.5000    0.0000 C.ar    1  UNL1        0.1465
      9 C           6.4260    1.0347    0.0000 C.ar    1  UNL1        0.1381
     10 C           8.1962    1.0241    0.0000 C.3     1  UNL1       -0.0023
     11 C           7.3321   -0.5208    0.0000 C.ar    1  UNL1        0.1305
     12 C           3.8000    0.5000    0.0000 C.ar    1  UNL1        0.0683
     13 C           4.6660    1.0000    0.0000 C.ar    1  UNL1        0.2038
     14 C           6.4260   -1.0347    0.0000 C.ar    1  UNL1        0.0236
     15 C           3.8000   -0.5000    0.0000 C.ar    1  UNL1        0.1804
     16 C           9.0641    0.5275    0.0000 C.2     1  UNL1       -0.0807
     17 C           2.9061    1.0347    0.0000 C.ar    1  UNL1       -0.0471
     18 C           2.9061   -1.0347    0.0000 C.ar    1  UNL1        0.1598
     19 C           9.9282    1.0308    0.0000 C.2     1  UNL1       -0.0793
     20 C           2.0000    0.5208    0.0000 C.ar    1  UNL1       -0.0574
     21 C           2.0000   -0.5208    0.0000 C.ar    1  UNL1       -0.0165
     22 C          10.7961    0.5342    0.0000 C.3     1  UNL1       -0.0440
     23 C           9.9243    2.0308    0.0000 C.3     1  UNL1       -0.0440
     24 C           8.1923   -2.0241    0.0000 C.3     1  UNL1        0.0788
     25 H           8.5929    1.5006    0.0000 H       1  UNL1        0.0358
     26 H           7.7958    1.4976    0.0000 H       1  UNL1        0.0358
     27 H           6.4188   -1.6546    0.0000 H       1  UNL1        0.0691
     28 H           9.0665   -0.0925    0.0000 H       1  UNL1        0.0575
     29 H           2.9132    1.6546    0.0000 H       1  UNL1        0.0626
     30 H           1.4643    0.8329    0.0000 H       1  UNL1        0.0619
     31 H           1.4643   -0.8329    0.0000 H       1  UNL1        0.0655
     32 H           6.9478    2.3508    0.0000 H       1  UNL1        0.2922
     33 H          10.4882   -0.0040    0.0000 H       1  UNL1        0.0274
     34 H          10.5443    2.0332    0.0000 H       1  UNL1        0.0274
     35 H           9.9220    2.6508    0.0000 H       1  UNL1        0.0274
     36 H           9.3044    2.0284    0.0000 H       1  UNL1        0.0274
     37 H          11.3343    0.2262    0.0000 H       1  UNL1        0.0274
     38 H          11.1041    1.0723    0.0000 H       1  UNL1        0.0274
     39 H           7.5723   -2.0218    0.0000 H       1  UNL1        0.0660
     40 H           8.1899   -2.6441    0.0000 H       1  UNL1        0.0660
     41 H           8.8123   -2.0265    0.0000 H       1  UNL1        0.0660
     42 H           2.3843   -2.3508    0.0000 H       1  UNL1        0.2923
@<TRIPOS>BOND
     1     1     8   ar
     2     1    15   ar
     3     2    11    1
     4     2    24    1
     5     3     9    1
     6     3    32    1
     7     4    13    2
     8     5    18    1
     9     5    42    1
    10     6     8   ar
    11     6     9   ar
    12     6    13   ar
    13     7     9   ar
    14     7    10    1
    15     7    11   ar
    16     8    14   ar
    17    10    16    1
    18    10    25    1
    19    10    26    1
    20    11    14   ar
    21    12    13   ar
    22    12    15   ar
    23    12    17   ar
    24    14    27    1
    25    15    18   ar
    26    16    19    2
    27    16    28    1
    28    17    20   ar
    29    17    29    1
    30    18    21   ar
    31    19    22    1
    32    19    23    1
    33    20    21   ar
    34    20    30    1
    35    21    31    1
    36    22    33    1
    37    22    37    1
    38    22    38    1
    39    23    34    1
    40    23    35    1
    41    23    36    1
    42    24    39    1
    43    24    40    1
    44    24    41    1
