@<TRIPOS>MOLECULE
IMPHY012339
 41 42 0 0 0
SMALL
GASTEIGER

@<TRIPOS>ATOM
      1 O           4.5981   -0.5950    0.0000 O.3     1  UNL1       -0.3848
      2 O           5.9821   -1.0014    0.0000 O.3     1  UNL1       -0.3846
      3 O           2.8660   -2.5950    0.0000 O.3     1  UNL1       -0.4773
      4 O           2.0000   -1.0950    0.0000 O.2     1  UNL1       -0.2455
      5 C           4.5981    0.4050    0.0000 C.3     1  UNL1        0.1058
      6 C           4.5981    1.4050    0.0000 C.3     1  UNL1       -0.0028
      7 C           3.7320    1.9050    0.0000 C.3     1  UNL1       -0.0380
      8 C           3.7320   -0.0950    0.0000 C.3     1  UNL1        0.0222
      9 C           2.8660    1.4050    0.0000 C.3     1  UNL1       -0.0495
     10 C           2.8660    0.4050    0.0000 C.3     1  UNL1       -0.0430
     11 C           5.4920   -0.1297    0.0000 C.3     1  UNL1        0.1055
     12 C           5.4920    1.9397    0.0000 C.3     1  UNL1       -0.0286
     13 C           6.3981    0.3842    0.0000 C.2     1  UNL1       -0.0457
     14 C           3.7320    2.9050    0.0000 C.3     1  UNL1       -0.0621
     15 C           6.3981    1.4258    0.0000 C.2     1  UNL1       -0.0822
     16 C           3.7320   -1.0950    0.0000 C.2     1  UNL1        0.0352
     17 C           7.2622   -0.1192    0.0000 C.3     1  UNL1       -0.0413
     18 C           2.8660   -1.5950    0.0000 C.2     1  UNL1        0.3326
     19 C           4.5981   -1.5950    0.0000 C.2     1  UNL1       -0.0884
     20 H           5.3374    0.9857    0.0000 H       1  UNL1        0.0335
     21 H           4.2690    2.2150    0.0000 H       1  UNL1        0.0302
     22 H           3.1951   -0.4050    0.0000 H       1  UNL1        0.0380
     23 H           2.2554    0.5127    0.0000 H       1  UNL1        0.0272
     24 H           2.6540   -0.1776    0.0000 H       1  UNL1        0.0272
     25 H           2.6540    1.9876    0.0000 H       1  UNL1        0.0268
     26 H           2.2554    1.2973    0.0000 H       1  UNL1        0.0268
     27 H           5.0478   -0.5621    0.0000 H       1  UNL1        0.0669
     28 H           5.8856    2.4187    0.0000 H       1  UNL1        0.0311
     29 H           5.0874    2.4094    0.0000 H       1  UNL1        0.0311
     30 H           4.3520    2.9050    0.0000 H       1  UNL1        0.0233
     31 H           3.7320    3.5250    0.0000 H       1  UNL1        0.0233
     32 H           3.1120    2.9050    0.0000 H       1  UNL1        0.0233
     33 H           6.9338    1.7379    0.0000 H       1  UNL1        0.0572
     34 H           5.1350   -0.9050    0.0000 H       1  UNL1        0.2103
     35 H           6.6019   -1.0086    0.0000 H       1  UNL1        0.2103
     36 H           6.9501   -0.6549    0.0000 H       1  UNL1        0.0275
     37 H           7.7979   -0.4312    0.0000 H       1  UNL1        0.0275
     38 H           7.5742    0.4166    0.0000 H       1  UNL1        0.0275
     39 H           4.5981   -2.2150    0.0000 H       1  UNL1        0.0540
     40 H           5.1350   -1.2850    0.0000 H       1  UNL1        0.0540
     41 H           2.3291   -2.9050    0.0000 H       1  UNL1        0.2954
@<TRIPOS>BOND
     1     5     1    1
     2     1    34    1
     3    11     2    1
     4     2    35    1
     5     3    18    1
     6     3    41    1
     7     4    18    2
     8     5     6    1
     9     5     8    1
    10     5    11    1
    11     6     7    1
    12     6    12    1
    13     6    20    1
    14     7     9    1
    15     7    14    1
    16     7    21    1
    17     8    10    1
    18     8    16    1
    19     8    22    1
    20     9    10    1
    21     9    25    1
    22     9    26    1
    23    10    23    1
    24    10    24    1
    25    11    13    1
    26    11    27    1
    27    12    15    1
    28    12    28    1
    29    12    29    1
    30    13    15    2
    31    13    17    1
    32    14    30    1
    33    14    31    1
    34    14    32    1
    35    15    33    1
    36    16    18    1
    37    16    19    2
    38    17    36    1
    39    17    37    1
    40    17    38    1
    41    19    39    1
    42    19    40    1
