@<TRIPOS>MOLECULE
IMPHY016862
 21 21 0 0 0
SMALL
GASTEIGER

@<TRIPOS>ATOM
      1 O           4.5032   -0.7694    0.0000 O.3     1  UNL1       -0.3229
      2 O           6.2633   -0.4907    0.0000 O.3     1  UNL1       -0.3544
      3 O           2.7431   -0.4907    0.0000 O.3     1  UNL1       -0.3544
      4 C           5.0032    0.7694    0.0000 C.3     1  UNL1        0.0031
      5 C           4.0032    0.7694    0.0000 C.3     1  UNL1        0.0031
      6 C           5.3122   -0.1816    0.0000 C.3     1  UNL1        0.1619
      7 C           3.6942   -0.1816    0.0000 C.3     1  UNL1        0.1619
      8 C           7.0064    0.1785    0.0000 C.3     1  UNL1        0.0394
      9 C           2.0000    0.1785    0.0000 C.3     1  UNL1        0.0394
     10 H           5.6097    0.8983    0.0000 H       1  UNL1        0.0315
     11 H           4.9384    1.3860    0.0000 H       1  UNL1        0.0315
     12 H           4.0680    1.3860    0.0000 H       1  UNL1        0.0315
     13 H           3.3968    0.8983    0.0000 H       1  UNL1        0.0315
     14 H           5.7506    0.2568    0.0000 H       1  UNL1        0.0910
     15 H           3.2558    0.2568    0.0000 H       1  UNL1        0.0910
     16 H           7.4213   -0.2823    0.0000 H       1  UNL1        0.0525
     17 H           7.4672    0.5933    0.0000 H       1  UNL1        0.0525
     18 H           6.5916    0.6392    0.0000 H       1  UNL1        0.0525
     19 H           2.4149    0.6392    0.0000 H       1  UNL1        0.0525
     20 H           1.5392    0.5933    0.0000 H       1  UNL1        0.0525
     21 H           1.5851   -0.2823    0.0000 H       1  UNL1        0.0525
@<TRIPOS>BOND
     1     1     6    1
     2     1     7    1
     3     2     6    1
     4     2     8    1
     5     3     7    1
     6     3     9    1
     7     4     5    1
     8     4     6    1
     9     4    10    1
    10     4    11    1
    11     5     7    1
    12     5    12    1
    13     5    13    1
    14     6    14    1
    15     7    15    1
    16     8    16    1
    17     8    17    1
    18     8    18    1
    19     9    19    1
    20     9    20    1
    21     9    21    1
