@<TRIPOS>MOLECULE
IMPHY001790
 32 34 0 0 0
SMALL
GASTEIGER

@<TRIPOS>ATOM
      1 O           2.8641   -0.1372    0.0000 O.3     1  UNL1       -0.4270
      2 O           5.5301    1.3419    0.0000 O.3     1  UNL1       -0.5052
      3 O           7.2785    1.3765    0.0000 O.3     1  UNL1       -0.5059
      4 O           9.0602   -1.6822    0.0000 O.3     1  UNL1       -0.4950
      5 O           3.7817    1.3765    0.0000 O.2     1  UNL1       -0.2444
      6 C           4.6641   -1.1581    0.0000 C.ar    1  UNL1       -0.0220
      7 C           4.6641   -0.1581    0.0000 C.ar    1  UNL1        0.1050
      8 C           6.3961   -0.1581    0.0000 C.ar    1  UNL1        0.0660
      9 C           6.3961   -1.1581    0.0000 C.ar    1  UNL1       -0.0071
     10 C           3.7702   -1.6927    0.0000 C.3     1  UNL1        0.0312
     11 C           5.5301   -1.6581    0.0000 C.ar    1  UNL1       -0.0492
     12 C           5.5301    0.3419    0.0000 C.ar    1  UNL1        0.1423
     13 C           7.2901    0.3766    0.0000 C.ar    1  UNL1        0.1315
     14 C           7.2901   -1.6927    0.0000 C.ar    1  UNL1       -0.0119
     15 C           2.8641   -1.1789    0.0000 C.2     1  UNL1        0.1064
     16 C           3.7702    0.3766    0.0000 C.2     1  UNL1        0.3480
     17 C           8.1962   -1.1789    0.0000 C.ar    1  UNL1        0.1242
     18 C           8.1962   -0.1372    0.0000 C.ar    1  UNL1        0.0223
     19 C           2.0000   -1.6822    0.0000 C.2     1  UNL1       -0.0600
     20 C           9.9282   -1.1856    0.0000 C.3     1  UNL1        0.0788
     21 H           3.3765   -2.1717    0.0000 H       1  UNL1        0.0392
     22 H           4.1748   -2.1625    0.0000 H       1  UNL1        0.0392
     23 H           5.5301   -2.2781    0.0000 H       1  UNL1        0.0627
     24 H           7.2829   -2.3127    0.0000 H       1  UNL1        0.0660
     25 H           8.7319    0.1748    0.0000 H       1  UNL1        0.0691
     26 H           4.9932    1.6519    0.0000 H       1  UNL1        0.2922
     27 H           1.4619   -1.3743    0.0000 H       1  UNL1        0.0568
     28 H           2.0024   -2.3022    0.0000 H       1  UNL1        0.0568
     29 H           7.8118    1.6927    0.0000 H       1  UNL1        0.2922
     30 H          10.2361   -1.7237    0.0000 H       1  UNL1        0.0660
     31 H          10.4663   -0.8776    0.0000 H       1  UNL1        0.0660
     32 H           9.6203   -0.6474    0.0000 H       1  UNL1        0.0660
@<TRIPOS>BOND
     1     1    15    1
     2     1    16    1
     3     2    12    1
     4     2    26    1
     5     3    13    1
     6     3    29    1
     7     4    17    1
     8     4    20    1
     9     5    16    2
    10     6     7   ar
    11     6    10    1
    12     6    11   ar
    13     7    12   ar
    14     7    16    1
    15     8     9   ar
    16     8    12   ar
    17     8    13   ar
    18     9    11   ar
    19     9    14   ar
    20    10    15    1
    21    10    21    1
    22    10    22    1
    23    11    23    1
    24    13    18   ar
    25    14    17   ar
    26    14    24    1
    27    15    19    2
    28    17    18   ar
    29    18    25    1
    30    19    27    1
    31    19    28    1
    32    20    30    1
    33    20    31    1
    34    20    32    1
