@<TRIPOS>MOLECULE
IMPHY017289
 27 28 0 0 0
SMALL
GASTEIGER

@<TRIPOS>ATOM
      1 O           5.2619   -0.2774    0.0000 O.3     1  UNL1       -0.4633
      2 O           2.8660    1.7226    0.0000 O.3     1  UNL1       -0.3908
      3 O           4.9889   -2.0326    0.0000 O.2     1  UNL1       -0.2499
      4 C           3.7320    0.2226    0.0000 C.3     1  UNL1        0.0471
      5 C           3.7320   -0.7774    0.0000 C.3     1  UNL1        0.0937
      6 C           2.8660    0.7226    0.0000 C.3     1  UNL1        0.0684
      7 C           4.6783    0.5274    0.0000 C.3     1  UNL1        0.1015
      8 C           3.7320    1.2226    0.0000 C.3     1  UNL1       -0.0528
      9 C           2.0000    0.2226    0.0000 C.3     1  UNL1       -0.0079
     10 C           2.8660   -1.2774    0.0000 C.2     1  UNL1       -0.0708
     11 C           4.6783   -1.0821    0.0000 C.2     1  UNL1        0.3176
     12 C           3.7320   -1.7774    0.0000 C.3     1  UNL1       -0.0452
     13 C           2.0000   -0.7774    0.0000 C.2     1  UNL1       -0.0844
     14 H           2.1299    1.1476    0.0000 H       1  UNL1        0.0603
     15 H           5.2156    0.8366    0.0000 H       1  UNL1        0.0704
     16 H           4.4272    1.0943    0.0000 H       1  UNL1        0.0704
     17 H           4.3520    1.2226    0.0000 H       1  UNL1        0.0237
     18 H           3.7320    1.8426    0.0000 H       1  UNL1        0.0237
     19 H           3.1120    1.2226    0.0000 H       1  UNL1        0.0237
     20 H           1.7880    0.8052    0.0000 H       1  UNL1        0.0332
     21 H           1.3894    0.1150    0.0000 H       1  UNL1        0.0332
     22 H           2.8660   -1.8974    0.0000 H       1  UNL1        0.0580
     23 H           3.1120   -1.7774    0.0000 H       1  UNL1        0.0243
     24 H           3.7320   -2.3974    0.0000 H       1  UNL1        0.0243
     25 H           4.3520   -1.7774    0.0000 H       1  UNL1        0.0243
     26 H           1.4631   -1.0874    0.0000 H       1  UNL1        0.0570
     27 H           2.3291    2.0326    0.0000 H       1  UNL1        0.2098
@<TRIPOS>BOND
     1     1     7    1
     2     1    11    1
     3     2     6    1
     4     2    27    1
     5     3    11    2
     6     4     5    1
     7     4     6    1
     8     4     7    1
     9     4     8    1
    10     5    10    1
    11     5    11    1
    12     5    12    1
    13     6     9    1
    14     6    14    1
    15     7    15    1
    16     7    16    1
    17     8    17    1
    18     8    18    1
    19     8    19    1
    20     9    13    1
    21     9    20    1
    22     9    21    1
    23    10    13    2
    24    10    22    1
    25    12    23    1
    26    12    24    1
    27    12    25    1
    28    13    26    1
