@<TRIPOS>MOLECULE
IMPHY017031
 12 11 0 0 0
SMALL
GASTEIGER

@<TRIPOS>ATOM
      1 O           2.0000   -0.2500    0.0000 O.2     1  UNL1       -0.3010
      2 O           6.3301    0.2500    0.0000 O.2     1  UNL1       -0.3010
      3 C           3.7320   -0.2500    0.0000 C.3     1  UNL1        0.0092
      4 C           4.5981    0.2500    0.0000 C.3     1  UNL1        0.0092
      5 C           2.8660    0.2500    0.0000 C.2     1  UNL1        0.1207
      6 C           5.4641   -0.2500    0.0000 C.2     1  UNL1        0.1207
      7 H           3.3335   -0.7249    0.0000 H       1  UNL1        0.0343
      8 H           4.1306   -0.7249    0.0000 H       1  UNL1        0.0343
      9 H           4.9966    0.7249    0.0000 H       1  UNL1        0.0343
     10 H           4.1996    0.7249    0.0000 H       1  UNL1        0.0343
     11 H           2.8660    0.8700    0.0000 H       1  UNL1        0.1026
     12 H           5.4641   -0.8700    0.0000 H       1  UNL1        0.1026
@<TRIPOS>BOND
     1     1     5    2
     2     2     6    2
     3     3     4    1
     4     3     5    1
     5     3     7    1
     6     3     8    1
     7     4     6    1
     8     4     9    1
     9     4    10    1
    10     5    11    1
    11     6    12    1
