@<TRIPOS>MOLECULE
IMPHY007139
 33 35 0 0 0
SMALL
GASTEIGER

@<TRIPOS>ATOM
      1 O4*         6.8066    0.8252    0.0000 O.3     1  UNL1       -0.3457
      2 O2*         4.2686    1.3296    0.0000 O.3     1  UNL1       -0.3847
      3 O3*         5.5504    3.0874    0.0000 O.3     1  UNL1       -0.3864
      4 O5*         8.5312    2.0032    0.0000 O.3     1  UNL1       -0.3924
      5 O           2.0000   -0.2375    0.0000 O.2     1  UNL1       -0.2446
      6 N           5.5443   -0.4327    0.0000 N.ar    1  UNL1       -0.2854
      7 N           5.5443   -2.0422    0.0000 N.ar    1  UNL1       -0.2306
      8 N           3.7320   -0.2375    0.0000 N.ar    1  UNL1       -0.1733
      9 N           2.8660   -1.7374    0.0000 N.ar    1  UNL1       -0.2929
     10 N           3.7320   -3.2374    0.0000 N.pl3   1  UNL1       -0.3427
     11 C2*         5.2686    1.3278    0.0000 C.3     1  UNL1        0.1285
     12 C1*         5.8550    0.5178    0.0000 C.3     1  UNL1        0.1667
     13 C3*         5.8578    2.1358    0.0000 C.3     1  UNL1        0.1135
     14 C4*         6.8083    1.8252    0.0000 C.3     1  UNL1        0.1126
     15 C5*         7.6183    2.4116    0.0000 C.3     1  UNL1        0.0730
     16 C           4.5981   -0.7375    0.0000 C.ar    1  UNL1        0.1711
     17 C           6.1279   -1.2374    0.0000 C.ar    1  UNL1        0.1004
     18 C           4.5981   -1.7374    0.0000 C.ar    1  UNL1        0.1456
     19 C           3.7320   -2.2374    0.0000 C.ar    1  UNL1        0.1271
     20 C           2.8660   -0.7375    0.0000 C.ar    1  UNL1        0.3491
     21 H2*         4.9861    0.7759    0.0000 H       1  UNL1        0.0665
     22 H1*         6.2926    0.0786    0.0000 H       1  UNL1        0.0866
     23 H3*         5.2456    2.2339    0.0000 H       1  UNL1        0.0647
     24 H4*         7.3602    1.5427    0.0000 H       1  UNL1        0.0647
     25 H5*1        7.9659    2.9250    0.0000 H       1  UNL1        0.0584
     26 H5*2        7.1731    2.8430    0.0000 H       1  UNL1        0.0584
     27 H2*         3.9595    1.8670    0.0000 H       1  UNL1        0.2101
     28 H           6.7479   -1.2374    0.0000 H       1  UNL1        0.1030
     29 H3*         5.9660    3.5474    0.0000 H       1  UNL1        0.2100
     30 H5*         9.0334    2.3668    0.0000 H       1  UNL1        0.2095
     31 H           2.3291   -2.0474    0.0000 H       1  UNL1        0.1717
     32 H           3.1951   -3.5474    0.0000 H       1  UNL1        0.1437
     33 H           4.2690   -3.5474    0.0000 H       1  UNL1        0.1437
@<TRIPOS>BOND
     1     1    12    1
     2     1    14    1
     3    11     2    1
     4     2    27    1
     5    13     3    1
     6     3    29    1
     7     4    15    1
     8     4    30    1
     9     5    20    2
    10    12     6    1
    11     6    16   ar
    12     6    17   ar
    13     7    17   ar
    14     7    18   ar
    15     8    16   ar
    16     8    20   ar
    17     9    19   ar
    18     9    20   ar
    19     9    31    1
    20    10    19    1
    21    10    32    1
    22    10    33    1
    23    11    12    1
    24    11    13    1
    25    11    21    1
    26    12    22    1
    27    13    14    1
    28    13    23    1
    29    14    15    1
    30    14    24    1
    31    15    25    1
    32    15    26    1
    33    16    18   ar
    34    17    28    1
    35    18    19   ar
