@<TRIPOS>MOLECULE
IMPHY017914
 8 7 0 0 0
SMALL
GASTEIGER

@<TRIPOS>ATOM
      1 C           0.6666   -3.4567    0.0000 C.3     1  UNL1        0.0122
      2 C           1.9958   -3.4567    0.0000 C.3     1  UNL1        0.1101
      3 C           2.6624   -2.3032    0.0000 C.2     1  UNL1        0.3235
      4 O           3.9916   -2.3032    0.0000 O.2     1  UNL1       -0.2496
      5 O           1.9958   -1.1536    0.0000 O.3     1  UNL1       -0.3924
      6 C           0.6666   -1.1536    0.0000 C.2     1  UNL1        0.3241
      7 O           0.0000    0.0000    0.0000 O.2     1  UNL1       -0.2496
      8 C           0.0000   -2.3032    0.0000 C.3     1  UNL1        0.1217
@<TRIPOS>BOND
     1     1     2    1
     2     2     3    1
     3     3     4    2
     4     3     5    1
     5     5     6    1
     6     6     7    2
     7     6     8    1
