@<TRIPOS>MOLECULE
IMPHY001087
 22 22 0 0 0
SMALL
GASTEIGER

@<TRIPOS>ATOM
      1 O           2.8660   -3.1550    0.0000 O.3     1  UNL1       -0.5068
      2 O           4.5981    2.8450    0.0000 O.3     1  UNL1       -0.4806
      3 O           2.8660    2.8450    0.0000 O.2     1  UNL1       -0.2510
      4 C           2.8660    0.8450    0.0000 C.3     1  UNL1       -0.0176
      5 C           2.8660   -0.1550    0.0000 C.ar    1  UNL1       -0.0466
      6 C           3.7320    1.3450    0.0000 C.3     1  UNL1        0.0487
      7 C           2.0000   -0.6550    0.0000 C.ar    1  UNL1       -0.0551
      8 C           3.7320   -0.6550    0.0000 C.ar    1  UNL1       -0.0551
      9 C           2.0000   -1.6550    0.0000 C.ar    1  UNL1       -0.0199
     10 C           3.7320   -1.6550    0.0000 C.ar    1  UNL1       -0.0199
     11 C           2.8660   -2.1550    0.0000 C.ar    1  UNL1        0.1169
     12 C           3.7320    2.3450    0.0000 C.2     1  UNL1        0.3050
     13 H           2.6540    1.4276    0.0000 H       1  UNL1        0.0318
     14 H           2.2554    0.7373    0.0000 H       1  UNL1        0.0318
     15 H           3.9441    0.7624    0.0000 H       1  UNL1        0.0381
     16 H           4.3426    1.4527    0.0000 H       1  UNL1        0.0381
     17 H           1.4631   -0.3450    0.0000 H       1  UNL1        0.0621
     18 H           4.2690   -0.3450    0.0000 H       1  UNL1        0.0621
     19 H           1.4631   -1.9650    0.0000 H       1  UNL1        0.0654
     20 H           4.2690   -1.9650    0.0000 H       1  UNL1        0.0654
     21 H           2.3291   -3.4650    0.0000 H       1  UNL1        0.2921
     22 H           4.5981    3.4650    0.0000 H       1  UNL1        0.2951
@<TRIPOS>BOND
     1     1    11    1
     2     1    21    1
     3     2    12    1
     4     2    22    1
     5     3    12    2
     6     4     5    1
     7     4     6    1
     8     4    13    1
     9     4    14    1
    10     5     7   ar
    11     5     8   ar
    12     6    12    1
    13     6    15    1
    14     6    16    1
    15     7     9   ar
    16     7    17    1
    17     8    10   ar
    18     8    18    1
    19     9    11   ar
    20     9    19    1
    21    10    11   ar
    22    10    20    1
