@<TRIPOS>MOLECULE
IMPHY010660
 34 38 0 0 0
SMALL
GASTEIGER

@<TRIPOS>ATOM
      1 C           8.0303   -1.1367    0.0000 C.3     1  UNL1       -0.0003
      2 C           6.8753   -1.8151    0.0000 C.3     1  UNL1       -0.0039
      3 C           6.8753   -3.1351    0.0000 C.3     1  UNL1       -0.0191
      4 C           5.7294   -3.7951    0.0000 C.3     1  UNL1       -0.0036
      5 C           5.7294   -5.1152    0.0000 C.3     1  UNL1       -0.0037
      6 C           4.5927   -5.7844    0.0000 C.3     1  UNL1       -0.0193
      7 C           3.4376   -5.1152    0.0000 C.3     1  UNL1       -0.0045
      8 C           2.2918   -5.7844    0.0000 C.3     1  UNL1        0.0090
      9 C           2.2918   -7.1044    0.0000 C.3     1  UNL1       -0.0011
     10 C           1.1367   -7.7645    0.0000 C.3     1  UNL1       -0.0001
     11 C           0.0000   -7.1044    0.0000 C.3     1  UNL1        0.0026
     12 C           0.0000   -5.7844    0.0000 C.3     1  UNL1        0.0326
     13 C           1.1367   -5.1152    0.0000 C.3     1  UNL1        0.1482
     14 C           9.1670   -1.8151    0.0000 C.3     1  UNL1       -0.0000
     15 C           9.1670   -3.1351    0.0000 C.3     1  UNL1       -0.0003
     16 C           8.0303   -3.7951    0.0000 C.3     1  UNL1       -0.0034
     17 C           8.0303   -5.1152    0.0000 C.3     1  UNL1       -0.0003
     18 C           6.8753   -5.7844    0.0000 C.3     1  UNL1       -0.0003
     19 C           4.5927   -3.1351    0.0000 C.3     1  UNL1       -0.0003
     20 C           3.4376   -3.7951    0.0000 C.3     1  UNL1       -0.0005
     21 C           4.5927   -7.1044    0.0000 C.3     1  UNL1       -0.0040
     22 C           3.4376   -7.7645    0.0000 C.3     1  UNL1       -0.0005
     23 C           8.6903    0.0000    0.0000 C.3     1  UNL1       -0.0000
     24 C           7.3611    0.0000    0.0000 C.3     1  UNL1       -0.0000
     25 C           5.7294   -2.4659    0.0000 C.3     1  UNL1       -0.0003
     26 C           5.7294   -6.5269    0.0000 C.3     1  UNL1       -0.0003
     27 C           3.4743   -6.4719    0.0000 C.3     1  UNL1       -0.0005
     28 C           2.2918   -8.4337    0.0000 C.3     1  UNL1       -0.0002
     29 C           1.1367   -9.0937    0.0000 C.3     1  UNL1       -0.0000
     30 O           1.1367   -3.7860    0.0000 O.3     1  UNL1       -0.2235
     31 C           9.1578   -4.4643    0.0000 C.3     1  UNL1       -0.0003
     32 H           6.9119   -4.5652    0.0000 H       1  UNL1        0.0318
     33 H           2.2918   -4.4643    0.0000 H       1  UNL1        0.0342
     34 H           4.5927   -4.4552    0.0000 H       1  UNL1        0.0318
@<TRIPOS>BOND
     1     1    14    1
     2     1     2    1
     3     1    23    1
     4     1    24    1
     5     2     3    1
     6     3     4    1
     7     3    16    1
     8     3    32    1
     9     4    19    1
    10     4     5    1
    11     4    25    1
    12     5     6    1
    13     5    18    1
    14     5    26    1
    15     6    21    1
    16     6     7    1
    17     6    34    1
    18     7     8    1
    19     7    20    1
    20     7    27    1
    21     8    13    1
    22     8     9    1
    23     8    33    1
    24     9    10    1
    25     9    22    1
    26     9    28    1
    27    10    11    1
    28    10    29    1
    29    11    12    1
    30    12    13    1
    31    13    30    1
    32    14    15    1
    33    15    16    1
    34    16    17    1
    35    16    31    1
    36    17    18    1
    37    19    20    1
    38    21    22    1
