@<TRIPOS>MOLECULE
IMPHY007687
 59 61 0 0 0
SMALL
GASTEIGER

@<TRIPOS>ATOM
      1 O           4.4487    1.5000    0.0000 O.2     1  UNL1       -0.2706
      2 O          18.3853    0.3047    0.0000 O.3     1  UNL1       -0.4526
      3 O          18.3853   -1.3047    0.0000 O.3     1  UNL1       -0.4526
      4 N           3.5827    0.0000    0.0000 N.am    1  UNL1       -0.2980
      5 C           2.0000   -0.3364    0.0000 C.3     1  UNL1       -0.0357
      6 C           2.5000   -1.2024    0.0000 C.3     1  UNL1       -0.0357
      7 C           2.6691    0.4067    0.0000 C.3     1  UNL1        0.0150
      8 C           3.4782   -0.9945    0.0000 C.3     1  UNL1        0.0150
      9 C           4.4487    0.5000    0.0000 C.2     1  UNL1        0.2394
     10 C          10.5109    0.0000    0.0000 C.3     1  UNL1       -0.0528
     11 C          11.3769    0.5000    0.0000 C.3     1  UNL1       -0.0528
     12 C           9.6448    0.5000    0.0000 C.3     1  UNL1       -0.0496
     13 C          12.2429    0.0000    0.0000 C.3     1  UNL1       -0.0496
     14 C           8.7788    0.0000    0.0000 C.3     1  UNL1       -0.0345
     15 C          13.1090    0.5000    0.0000 C.3     1  UNL1       -0.0345
     16 C           5.3147    0.0000    0.0000 C.2     1  UNL1        0.0003
     17 C           7.9128    0.5000    0.0000 C.2     1  UNL1       -0.0840
     18 C           6.1808    0.5000    0.0000 C.2     1  UNL1       -0.0571
     19 C          13.9750    0.0000    0.0000 C.2     1  UNL1       -0.0835
     20 C           7.0468    0.0000    0.0000 C.2     1  UNL1       -0.0655
     21 C          14.8410    0.5000    0.0000 C.2     1  UNL1       -0.0584
     22 C          15.7070    0.0000    0.0000 C.ar    1  UNL1       -0.0216
     23 C          16.5731    0.5000    0.0000 C.ar    1  UNL1       -0.0090
     24 C          17.4391    0.0000    0.0000 C.ar    1  UNL1        0.1668
     25 C          15.7070   -1.0000    0.0000 C.ar    1  UNL1       -0.0509
     26 C          17.4391   -1.0000    0.0000 C.ar    1  UNL1        0.1663
     27 C          16.5731   -1.5000    0.0000 C.ar    1  UNL1       -0.0156
     28 C          18.9689   -0.5000    0.0000 C.3     1  UNL1        0.2332
     29 H           1.9336   -1.4546    0.0000 H       1  UNL1        0.0281
     30 H           2.6916   -1.7921    0.0000 H       1  UNL1        0.0281
     31 H           1.5851    0.1243    0.0000 H       1  UNL1        0.0281
     32 H           1.4984   -0.7008    0.0000 H       1  UNL1        0.0281
     33 H           3.5430   -1.6111    0.0000 H       1  UNL1        0.0465
     34 H           4.0982   -0.9945    0.0000 H       1  UNL1        0.0465
     35 H           2.9791    0.9437    0.0000 H       1  UNL1        0.0465
     36 H           2.1675    0.7712    0.0000 H       1  UNL1        0.0465
     37 H          11.7754    0.9749    0.0000 H       1  UNL1        0.0265
     38 H          10.9784    0.9749    0.0000 H       1  UNL1        0.0265
     39 H          10.1124   -0.4749    0.0000 H       1  UNL1        0.0265
     40 H          10.9094   -0.4749    0.0000 H       1  UNL1        0.0265
     41 H          10.0434    0.9749    0.0000 H       1  UNL1        0.0268
     42 H           9.2463    0.9749    0.0000 H       1  UNL1        0.0268
     43 H          11.8444   -0.4749    0.0000 H       1  UNL1        0.0268
     44 H          12.6415   -0.4749    0.0000 H       1  UNL1        0.0268
     45 H           8.3803   -0.4749    0.0000 H       1  UNL1        0.0307
     46 H           9.1774   -0.4749    0.0000 H       1  UNL1        0.0307
     47 H          13.5075    0.9749    0.0000 H       1  UNL1        0.0307
     48 H          12.7104    0.9749    0.0000 H       1  UNL1        0.0307
     49 H           5.3147   -0.6200    0.0000 H       1  UNL1        0.0669
     50 H           7.9128    1.1200    0.0000 H       1  UNL1        0.0572
     51 H          13.9750   -0.6200    0.0000 H       1  UNL1        0.0572
     52 H           6.1808    1.1200    0.0000 H       1  UNL1        0.0619
     53 H           7.0468   -0.6200    0.0000 H       1  UNL1        0.0614
     54 H          14.8410    1.1200    0.0000 H       1  UNL1        0.0620
     55 H          16.5731    1.1200    0.0000 H       1  UNL1        0.0661
     56 H          15.1701   -1.3100    0.0000 H       1  UNL1        0.0625
     57 H          16.5731   -2.1200    0.0000 H       1  UNL1        0.0655
     58 H          19.4298   -0.9147    0.0000 H       1  UNL1        0.1166
     59 H          19.4298   -0.0853    0.0000 H       1  UNL1        0.1166
@<TRIPOS>BOND
     1     1     9    2
     2     2    24    1
     3     2    28    1
     4     3    26    1
     5     3    28    1
     6     4     7    1
     7     4     8    1
     8     4     9   am
     9     5     6    1
    10     5     7    1
    11     5    31    1
    12     5    32    1
    13     6     8    1
    14     6    29    1
    15     6    30    1
    16     7    35    1
    17     7    36    1
    18     8    33    1
    19     8    34    1
    20     9    16    1
    21    10    11    1
    22    10    12    1
    23    10    39    1
    24    10    40    1
    25    11    13    1
    26    11    37    1
    27    11    38    1
    28    12    14    1
    29    12    41    1
    30    12    42    1
    31    13    15    1
    32    13    43    1
    33    13    44    1
    34    14    17    1
    35    14    45    1
    36    14    46    1
    37    15    19    1
    38    15    47    1
    39    15    48    1
    40    16    18    2
    41    16    49    1
    42    17    20    2
    43    17    50    1
    44    18    20    1
    45    18    52    1
    46    19    21    2
    47    19    51    1
    48    20    53    1
    49    21    22    1
    50    21    54    1
    51    22    23   ar
    52    22    25   ar
    53    23    24   ar
    54    23    55    1
    55    24    26   ar
    56    25    27   ar
    57    25    56    1
    58    26    27   ar
    59    27    57    1
    60    28    58    1
    61    28    59    1
