@<TRIPOS>MOLECULE
IMPHY017678
 37 38 0 0 0
SMALL
GASTEIGER

@<TRIPOS>ATOM
      1 O           4.5414    1.4964    0.0000 O.2     1  UNL1       -0.2971
      2 C           2.9665    1.2302    0.0000 C.3     1  UNL1       -0.0308
      3 C           2.7095    0.2552    0.0000 C.3     1  UNL1       -0.0260
      4 C           3.6754   -0.0036    0.0000 C.3     1  UNL1        0.0213
      5 C           3.9404    0.9693    0.0000 C.3     1  UNL1       -0.0378
      6 C           2.4507   -0.7107    0.0000 C.3     1  UNL1       -0.0454
      7 C           3.2233    2.1967    0.0000 C.3     1  UNL1       -0.0595
      8 C           2.0000    1.4871    0.0000 C.3     1  UNL1       -0.0595
      9 C           4.5414    0.4964    0.0000 C.2     1  UNL1        0.1370
     10 C           2.9507   -1.5767    0.0000 C.3     1  UNL1       -0.0317
     11 C           5.4075   -0.0036    0.0000 C.3     1  UNL1        0.0095
     12 C           3.8167   -1.0767    0.0000 C.2     1  UNL1       -0.0765
     13 C           5.5488   -1.0767    0.0000 C.3     1  UNL1       -0.0278
     14 C           4.6827   -1.5767    0.0000 C.2     1  UNL1       -0.0846
     15 C           3.8167   -0.0767    0.0000 C.3     1  UNL1       -0.0438
     16 H           2.1103    0.4145    0.0000 H       1  UNL1        0.0313
     17 H           3.7564   -0.6183    0.0000 H       1  UNL1        0.0380
     18 H           4.5388    0.8072    0.0000 H       1  UNL1        0.0277
     19 H           4.1017    1.5679    0.0000 H       1  UNL1        0.0277
     20 H           1.9137   -0.4007    0.0000 H       1  UNL1        0.0271
     21 H           2.0123   -1.1491    0.0000 H       1  UNL1        0.0271
     22 H           3.8225    2.0375    0.0000 H       1  UNL1        0.0235
     23 H           3.3825    2.7959    0.0000 H       1  UNL1        0.0235
     24 H           2.6241    2.3559    0.0000 H       1  UNL1        0.0235
     25 H           2.1592    2.0863    0.0000 H       1  UNL1        0.0235
     26 H           1.4008    1.6463    0.0000 H       1  UNL1        0.0235
     27 H           1.8408    0.8879    0.0000 H       1  UNL1        0.0235
     28 H           2.4137   -1.8867    0.0000 H       1  UNL1        0.0310
     29 H           3.2607   -2.1136    0.0000 H       1  UNL1        0.0310
     30 H           6.0251   -0.0576    0.0000 H       1  UNL1        0.0345
     31 H           5.5939    0.5877    0.0000 H       1  UNL1        0.0345
     32 H           5.7860   -1.6495    0.0000 H       1  UNL1        0.0311
     33 H           6.1476   -0.9162    0.0000 H       1  UNL1        0.0311
     34 H           4.6827   -2.1967    0.0000 H       1  UNL1        0.0572
     35 H           4.4367   -0.0767    0.0000 H       1  UNL1        0.0274
     36 H           3.8167    0.5433    0.0000 H       1  UNL1        0.0274
     37 H           3.1967   -0.0767    0.0000 H       1  UNL1        0.0274
@<TRIPOS>BOND
     1     1     9    2
     2     2     3    1
     3     2     5    1
     4     2     7    1
     5     2     8    1
     6     3     4    1
     7     3     6    1
     8     3    16    1
     9     4     5    1
    10     4     9    1
    11     4    17    1
    12     5    18    1
    13     5    19    1
    14     6    10    1
    15     6    20    1
    16     6    21    1
    17     7    22    1
    18     7    23    1
    19     7    24    1
    20     8    25    1
    21     8    26    1
    22     8    27    1
    23     9    11    1
    24    10    12    1
    25    10    28    1
    26    10    29    1
    27    11    13    1
    28    11    30    1
    29    11    31    1
    30    12    14    2
    31    12    15    1
    32    13    14    1
    33    13    32    1
    34    13    33    1
    35    14    34    1
    36    15    35    1
    37    15    36    1
    38    15    37    1
