@<TRIPOS>MOLECULE
IMPHY014250
 33 35 0 0 0
SMALL
GASTEIGER

@<TRIPOS>ATOM
      1 O           2.9176   -1.9377    0.0000 O.3     1  UNL1       -0.4944
      2 O           6.4144    2.1315    0.0000 O.3     1  UNL1       -0.5058
      3 O           6.4144   -1.9377    0.0000 O.3     1  UNL1       -0.5060
      4 O           4.6660   -1.9031    0.0000 O.2     1  UNL1       -0.2864
      5 O           4.6660    2.0969    0.0000 O.2     1  UNL1       -0.2865
      6 C           5.5321    0.5969    0.0000 C.ar    1  UNL1        0.0782
      7 C           5.5321   -0.4031    0.0000 C.ar    1  UNL1        0.0781
      8 C           3.8000   -0.4031    0.0000 C.ar    1  UNL1        0.0748
      9 C           3.8000    0.5969    0.0000 C.ar    1  UNL1        0.0367
     10 C           4.6660   -0.9031    0.0000 C.2     1  UNL1        0.2016
     11 C           4.6660    1.0969    0.0000 C.2     1  UNL1        0.1982
     12 C           6.4260    1.1316    0.0000 C.ar    1  UNL1        0.1315
     13 C           6.4260   -0.9378    0.0000 C.ar    1  UNL1        0.1288
     14 C           7.3321    0.6177    0.0000 C.ar    1  UNL1       -0.0048
     15 C           2.9061   -0.9378    0.0000 C.ar    1  UNL1        0.1316
     16 C           7.3321   -0.4239    0.0000 C.ar    1  UNL1       -0.0131
     17 C           2.9061    1.1316    0.0000 C.ar    1  UNL1       -0.0500
     18 C           2.0000   -0.4239    0.0000 C.ar    1  UNL1       -0.0192
     19 C           2.0000    0.6177    0.0000 C.ar    1  UNL1       -0.0576
     20 C           8.1962    1.1211    0.0000 C.3     1  UNL1       -0.0361
     21 C           2.0574   -2.4477    0.0000 C.3     1  UNL1        0.0788
     22 H           7.8678   -0.7360    0.0000 H       1  UNL1        0.0658
     23 H           2.9132    1.7515    0.0000 H       1  UNL1        0.0625
     24 H           1.4643   -0.7360    0.0000 H       1  UNL1        0.0654
     25 H           1.4643    0.9298    0.0000 H       1  UNL1        0.0619
     26 H           8.5082    0.5853    0.0000 H       1  UNL1        0.0279
     27 H           8.7319    1.4331    0.0000 H       1  UNL1        0.0279
     28 H           7.8841    1.6568    0.0000 H       1  UNL1        0.0279
     29 H           6.9478    2.4477    0.0000 H       1  UNL1        0.2922
     30 H           6.9478   -2.2539    0.0000 H       1  UNL1        0.2922
     31 H           1.7413   -1.9144    0.0000 H       1  UNL1        0.0660
     32 H           1.5241   -2.7639    0.0000 H       1  UNL1        0.0660
     33 H           2.3736   -2.9810    0.0000 H       1  UNL1        0.0660
@<TRIPOS>BOND
     1     1    15    1
     2     1    21    1
     3     2    12    1
     4     2    29    1
     5     3    13    1
     6     3    30    1
     7     4    10    2
     8     5    11    2
     9     6     7   ar
    10     6    11    1
    11     6    12   ar
    12     7    10    1
    13     7    13   ar
    14     8     9   ar
    15     8    10    1
    16     8    15   ar
    17     9    11    1
    18     9    17   ar
    19    12    14   ar
    20    13    16   ar
    21    14    16   ar
    22    14    20    1
    23    15    18   ar
    24    16    22    1
    25    17    19   ar
    26    17    23    1
    27    18    19   ar
    28    18    24    1
    29    19    25    1
    30    20    26    1
    31    20    27    1
    32    20    28    1
    33    21    31    1
    34    21    32    1
    35    21    33    1
