@<TRIPOS>MOLECULE
IMPHY013040
 31 31 0 0 0
SMALL
GASTEIGER

@<TRIPOS>ATOM
      1 O           2.0000   -2.7500    0.0000 O.3     1  UNL1       -0.4535
      2 O           5.4641    3.2500    0.0000 O.3     1  UNL1       -0.4535
      3 O           3.7320   -2.7500    0.0000 O.2     1  UNL1       -0.2261
      4 O           6.3301    1.7500    0.0000 O.2     1  UNL1       -0.2261
      5 N           2.8660   -1.2500    0.0000 N.am    1  UNL1       -0.2509
      6 N           4.5981    1.7500    0.0000 N.am    1  UNL1       -0.2509
      7 C           3.7320    0.2500    0.0000 C.ar    1  UNL1       -0.0079
      8 C           3.7320   -0.7500    0.0000 C.ar    1  UNL1        0.0411
      9 C           4.5981    0.7500    0.0000 C.ar    1  UNL1        0.0411
     10 C           4.5981   -1.2500    0.0000 C.ar    1  UNL1       -0.0400
     11 C           5.4641    0.2500    0.0000 C.ar    1  UNL1       -0.0400
     12 C           2.8660    0.7500    0.0000 C.3     1  UNL1       -0.0362
     13 C           5.4641   -0.7500    0.0000 C.ar    1  UNL1       -0.0582
     14 C           2.8660   -2.2500    0.0000 C.2     1  UNL1        0.4043
     15 C           5.4641    2.2500    0.0000 C.2     1  UNL1        0.4043
     16 C           2.0000   -3.7500    0.0000 C.3     1  UNL1        0.0833
     17 C           6.3301    3.7500    0.0000 C.3     1  UNL1        0.0833
     18 H           4.5981   -1.8700    0.0000 H       1  UNL1        0.0636
     19 H           6.0010    0.5600    0.0000 H       1  UNL1        0.0636
     20 H           3.1760    1.2869    0.0000 H       1  UNL1        0.0279
     21 H           2.3291    1.0600    0.0000 H       1  UNL1        0.0279
     22 H           2.5560    0.2131    0.0000 H       1  UNL1        0.0279
     23 H           6.0010   -1.0600    0.0000 H       1  UNL1        0.0619
     24 H           2.3291   -0.9400    0.0000 H       1  UNL1        0.1582
     25 H           4.0611    2.0600    0.0000 H       1  UNL1        0.1582
     26 H           1.3800   -3.7500    0.0000 H       1  UNL1        0.0661
     27 H           2.0000   -4.3700    0.0000 H       1  UNL1        0.0661
     28 H           2.6200   -3.7500    0.0000 H       1  UNL1        0.0661
     29 H           6.6401    3.2131    0.0000 H       1  UNL1        0.0661
     30 H           6.8671    4.0600    0.0000 H       1  UNL1        0.0661
     31 H           6.0201    4.2869    0.0000 H       1  UNL1        0.0661
@<TRIPOS>BOND
     1     1    14    1
     2     1    16    1
     3     2    15    1
     4     2    17    1
     5     3    14    2
     6     4    15    2
     7     5     8    1
     8     5    14   am
     9     5    24    1
    10     6     9    1
    11     6    15   am
    12     6    25    1
    13     7     8   ar
    14     7     9   ar
    15     7    12    1
    16     8    10   ar
    17     9    11   ar
    18    10    13   ar
    19    10    18    1
    20    11    13   ar
    21    11    19    1
    22    12    20    1
    23    12    21    1
    24    12    22    1
    25    13    23    1
    26    16    26    1
    27    16    27    1
    28    16    28    1
    29    17    29    1
    30    17    30    1
    31    17    31    1
