@<TRIPOS>MOLECULE
IMPHY015610
 23 22 0 0 0
SMALL
GASTEIGER

@<TRIPOS>ATOM
      1 O           6.8671    0.4050    0.0000 O.2     1  UNL1       -0.2965
      2 O           2.5369    0.9050    0.0000 O.3     1  UNL1       -0.4806
      3 O           3.4030   -0.5950    0.0000 O.2     1  UNL1       -0.2510
      4 N           7.7331    0.9050    0.0000 N.2     1  UNL1        0.1477
      5 N           8.5991   -0.5950    0.0000 N.pl3   1  UNL1       -0.2474
      6 C           5.1350    0.4050    0.0000 C.3     1  UNL1       -0.0038
      7 C           4.2690    0.9050    0.0000 C.3     1  UNL1        0.0480
      8 C           6.0010    0.9050    0.0000 C.3     1  UNL1        0.1444
      9 C           3.4030    0.4050    0.0000 C.2     1  UNL1        0.3048
     10 C           8.5991    0.4050    0.0000 C.2     1  UNL1        0.3281
     11 C           9.4651    0.9050    0.0000 C.3     1  UNL1        0.0430
     12 H           4.7365   -0.0699    0.0000 H       1  UNL1        0.0305
     13 H           5.5335   -0.0699    0.0000 H       1  UNL1        0.0305
     14 H           4.6675    1.3800    0.0000 H       1  UNL1        0.0379
     15 H           3.8705    1.3800    0.0000 H       1  UNL1        0.0379
     16 H           6.3996    1.3800    0.0000 H       1  UNL1        0.0748
     17 H           5.6025    1.3800    0.0000 H       1  UNL1        0.0748
     18 H           9.7751    0.3681    0.0000 H       1  UNL1        0.0352
     19 H          10.0021    1.2150    0.0000 H       1  UNL1        0.0352
     20 H           9.1551    1.4419    0.0000 H       1  UNL1        0.0352
     21 H           2.0000    0.5950    0.0000 H       1  UNL1        0.2951
     22 H           9.1360   -0.9050    0.0000 H       1  UNL1        0.2882
     23 H           8.0622   -0.9050    0.0000 H       1  UNL1        0.2882
@<TRIPOS>BOND
     1     1     4    1
     2     1     8    1
     3     2     9    1
     4     2    21    1
     5     3     9    2
     6     4    10    2
     7     5    10    1
     8     5    22    1
     9     5    23    1
    10     6     7    1
    11     6     8    1
    12     6    12    1
    13     6    13    1
    14     7     9    1
    15     7    14    1
    16     7    15    1
    17     8    16    1
    18     8    17    1
    19    10    11    1
    20    11    18    1
    21    11    19    1
    22    11    20    1
