@<TRIPOS>MOLECULE
IMPHY009757
 32 33 0 0 0
SMALL
GASTEIGER

@<TRIPOS>ATOM
      1 O           3.7057   -0.6902    0.0000 O.3     1  UNL1       -0.4571
      2 O           3.1133    0.9374    0.0000 O.2     1  UNL1       -0.2511
      3 C           8.0944   -0.0329    0.0000 C.3     1  UNL1       -0.0253
      4 C           6.9543    0.9242    0.0000 C.3     1  UNL1       -0.0311
      5 C           6.6955   -0.0417    0.0000 C.3     1  UNL1       -0.0110
      6 C           6.2177    1.9068    0.0000 C.3     1  UNL1       -0.0424
      7 C           4.9211    0.6130    0.0000 C.3     1  UNL1       -0.0084
      8 C           5.4745   -0.9074    0.0000 C.2     1  UNL1       -0.0330
      9 C           4.6454   -0.3482    0.0000 C.3     1  UNL1        0.1244
     10 C           8.5944   -0.8990    0.0000 C.3     1  UNL1       -0.0590
     11 C           8.9604    0.4671    0.0000 C.3     1  UNL1       -0.0590
     12 C           5.5094   -1.9068    0.0000 C.2     1  UNL1       -0.0957
     13 C           2.9397   -0.0474    0.0000 C.2     1  UNL1        0.3045
     14 C           2.0000   -0.3895    0.0000 C.3     1  UNL1        0.0333
     15 H           7.4046    1.3504    0.0000 H       1  UNL1        0.0308
     16 H           6.8855   -0.6319    0.0000 H       1  UNL1        0.0352
     17 H           6.5355    2.4392    0.0000 H       1  UNL1        0.0274
     18 H           5.6046    1.9988    0.0000 H       1  UNL1        0.0274
     19 H           4.9160    1.2330    0.0000 H       1  UNL1        0.0307
     20 H           4.3068    0.6968    0.0000 H       1  UNL1        0.0307
     21 H           4.1920    0.0746    0.0000 H       1  UNL1        0.0782
     22 H           9.2704   -0.0699    0.0000 H       1  UNL1        0.0235
     23 H           9.4974    0.7771    0.0000 H       1  UNL1        0.0235
     24 H           8.6505    1.0040    0.0000 H       1  UNL1        0.0235
     25 H           8.0575   -1.2090    0.0000 H       1  UNL1        0.0235
     26 H           8.9044   -1.4359    0.0000 H       1  UNL1        0.0235
     27 H           9.1314   -0.5890    0.0000 H       1  UNL1        0.0235
     28 H           4.9836   -2.2354    0.0000 H       1  UNL1        0.0536
     29 H           6.0568   -2.1979    0.0000 H       1  UNL1        0.0536
     30 H           1.7880    0.1931    0.0000 H       1  UNL1        0.0342
     31 H           1.4174   -0.6015    0.0000 H       1  UNL1        0.0342
     32 H           2.2120   -0.9721    0.0000 H       1  UNL1        0.0342
@<TRIPOS>BOND
     1     1     9    1
     2     1    13    1
     3     2    13    2
     4     3     4    1
     5     3     5    1
     6     3    10    1
     7     3    11    1
     8     4     6    1
     9     4     7    1
    10     4    15    1
    11     5     6    1
    12     5     8    1
    13     5    16    1
    14     6    17    1
    15     6    18    1
    16     7     9    1
    17     7    19    1
    18     7    20    1
    19     8     9    1
    20     8    12    2
    21     9    21    1
    22    10    25    1
    23    10    26    1
    24    10    27    1
    25    11    22    1
    26    11    23    1
    27    11    24    1
    28    12    28    1
    29    12    29    1
    30    13    14    1
    31    14    30    1
    32    14    31    1
    33    14    32    1
