@<TRIPOS>MOLECULE
IMPHY008061
 57 60 0 0 0
SMALL
GASTEIGER

@<TRIPOS>ATOM
      1 O          10.4366    1.1864    0.0000 O.3     1  UNL1       -0.4811
      2 O           6.9006    1.2143    0.0000 O.3     1  UNL1       -0.4821
      3 O           8.6605   -1.8204    0.0000 O.3     1  UNL1       -0.5055
      4 O           6.9121   -1.8550    0.0000 O.2     1  UNL1       -0.2917
      5 O           6.0022    2.7004    0.0000 O.3     1  UNL1       -0.5063
      6 O           2.5381    2.7138    0.0000 O.3     1  UNL1       -0.5066
      7 C          10.4446    2.2280    0.0000 C.3     1  UNL1        0.1235
      8 C           8.6605    1.1796    0.0000 C.ar    1  UNL1        0.0594
      9 C           7.7945    0.6796    0.0000 C.ar    1  UNL1        0.1460
     10 C           5.9945    0.7004    0.0000 C.3     1  UNL1        0.1355
     11 C           9.5266    0.6796    0.0000 C.ar    1  UNL1        0.1393
     12 C           7.7945   -0.3204    0.0000 C.ar    1  UNL1        0.1015
     13 C           9.5266   -0.3204    0.0000 C.ar    1  UNL1        0.0409
     14 C           5.9945   -0.3412    0.0000 C.3     1  UNL1        0.0521
     15 C           8.6605   -0.8204    0.0000 C.ar    1  UNL1        0.1378
     16 C           6.9006   -0.8551    0.0000 C.2     1  UNL1        0.1741
     17 C           9.5425    2.7489    0.0000 C.2     1  UNL1       -0.0408
     18 C           8.6445    2.2211    0.0000 C.2     1  UNL1       -0.0478
     19 C           5.1304    1.2038    0.0000 C.ar    1  UNL1        0.0347
     20 C          10.3926   -0.8204    0.0000 C.3     1  UNL1       -0.0023
     21 C          10.9479    3.0921    0.0000 C.3     1  UNL1       -0.0215
     22 C          11.4446    2.2242    0.0000 C.3     1  UNL1       -0.0215
     23 C           5.1343    2.2037    0.0000 C.ar    1  UNL1        0.1270
     24 C           4.2625    0.7071    0.0000 C.ar    1  UNL1       -0.0481
     25 C          10.3926   -1.8204    0.0000 C.2     1  UNL1       -0.0807
     26 C           4.2702    2.7071    0.0000 C.ar    1  UNL1        0.0217
     27 C           3.3984    1.2104    0.0000 C.ar    1  UNL1       -0.0196
     28 C          11.2586   -2.3204    0.0000 C.2     1  UNL1       -0.0793
     29 C           3.4022    2.2104    0.0000 C.ar    1  UNL1        0.1203
     30 C          11.2586   -3.3204    0.0000 C.3     1  UNL1       -0.0440
     31 C          12.1246   -1.8204    0.0000 C.3     1  UNL1       -0.0440
     32 H           5.9981    1.3204    0.0000 H       1  UNL1        0.0790
     33 H           5.3836   -0.2351    0.0000 H       1  UNL1        0.0385
     34 H           5.7854   -0.9249    0.0000 H       1  UNL1        0.0385
     35 H           9.5401    3.3689    0.0000 H       1  UNL1        0.0611
     36 H           8.1040    2.5249    0.0000 H       1  UNL1        0.0624
     37 H          11.0032   -0.9281    0.0000 H       1  UNL1        0.0358
     38 H          10.6046   -0.2378    0.0000 H       1  UNL1        0.0358
     39 H          11.4837    2.7801    0.0000 H       1  UNL1        0.0271
     40 H          11.2600    3.6279    0.0000 H       1  UNL1        0.0271
     41 H          10.4122    3.4042    0.0000 H       1  UNL1        0.0271
     42 H          11.4422    1.6042    0.0000 H       1  UNL1        0.0271
     43 H          12.0646    2.2218    0.0000 H       1  UNL1        0.0271
     44 H          11.4470    2.8442    0.0000 H       1  UNL1        0.0271
     45 H           4.2601    0.0871    0.0000 H       1  UNL1        0.0624
     46 H           9.8556   -2.1304    0.0000 H       1  UNL1        0.0575
     47 H           9.1975   -2.1304    0.0000 H       1  UNL1        0.2922
     48 H           4.2726    3.3271    0.0000 H       1  UNL1        0.0691
     49 H           2.8602    0.9025    0.0000 H       1  UNL1        0.0654
     50 H           6.0046    3.3204    0.0000 H       1  UNL1        0.2921
     51 H          10.6386   -3.3204    0.0000 H       1  UNL1        0.0274
     52 H          12.4346   -2.3573    0.0000 H       1  UNL1        0.0274
     53 H          12.6616   -1.5104    0.0000 H       1  UNL1        0.0274
     54 H          11.8146   -1.2835    0.0000 H       1  UNL1        0.0274
     55 H          11.2586   -3.9404    0.0000 H       1  UNL1        0.0274
     56 H          11.8786   -3.3204    0.0000 H       1  UNL1        0.0274
     57 H           2.0000    2.4058    0.0000 H       1  UNL1        0.2921
@<TRIPOS>BOND
     1     1     7    1
     2     1    11    1
     3     2     9    1
     4     2    10    1
     5     3    15    1
     6     3    47    1
     7     4    16    2
     8     5    23    1
     9     5    50    1
    10     6    29    1
    11     6    57    1
    12     7    17    1
    13     7    21    1
    14     7    22    1
    15     8     9   ar
    16     8    11   ar
    17     8    18    1
    18     9    12   ar
    19    10    14    1
    20    10    19    1
    21    10    32    1
    22    11    13   ar
    23    12    15   ar
    24    12    16    1
    25    13    15   ar
    26    13    20    1
    27    14    16    1
    28    14    33    1
    29    14    34    1
    30    17    18    2
    31    17    35    1
    32    18    36    1
    33    19    23   ar
    34    19    24   ar
    35    20    25    1
    36    20    37    1
    37    20    38    1
    38    21    39    1
    39    21    40    1
    40    21    41    1
    41    22    42    1
    42    22    43    1
    43    22    44    1
    44    23    26   ar
    45    24    27   ar
    46    24    45    1
    47    25    28    2
    48    25    46    1
    49    26    29   ar
    50    26    48    1
    51    27    29   ar
    52    27    49    1
    53    28    30    1
    54    28    31    1
    55    30    51    1
    56    30    55    1
    57    30    56    1
    58    31    52    1
    59    31    53    1
    60    31    54    1
