@<TRIPOS>MOLECULE
IMPHY009710
 42 44 0 0 0
SMALL
GASTEIGER

@<TRIPOS>ATOM
      1 O           3.7498   -0.7847    0.0000 O.3     1  UNL1       -0.3875
      2 C           4.5159   -0.1419    0.0000 C.3     1  UNL1        0.0778
      3 C           4.3067   -1.1138    0.0000 C.3     1  UNL1       -0.0022
      4 C           3.6499    0.3581    0.0000 C.3     1  UNL1       -0.0062
      5 C           5.3819    0.3581    0.0000 C.3     1  UNL1       -0.0087
      6 C           2.9128   -0.3090    0.0000 C.3     1  UNL1       -0.0288
      7 C           3.3180   -1.2168    0.0000 C.3     1  UNL1       -0.0395
      8 C           5.2916   -1.3289    0.0000 C.3     1  UNL1       -0.0446
      9 C           5.8863   -0.5148    0.0000 C.3     1  UNL1       -0.0467
     10 C           5.3819    1.3581    0.0000 C.3     1  UNL1       -0.0384
     11 C           3.6499    1.3581    0.0000 C.3     1  UNL1       -0.0468
     12 C           4.5159    1.8581    0.0000 C.3     1  UNL1       -0.0498
     13 C           4.9745   -1.8581    0.0000 C.3     1  UNL1       -0.0569
     14 C           2.0000   -0.7173    0.0000 C.3     1  UNL1       -0.0594
     15 C           2.2424    0.4330    0.0000 C.3     1  UNL1       -0.0594
     16 C           6.2479    1.8581    0.0000 C.3     1  UNL1       -0.0621
     17 H           3.0831    0.6095    0.0000 H       1  UNL1        0.0334
     18 H           5.9807    0.5186    0.0000 H       1  UNL1        0.0331
     19 H           2.7284   -1.4086    0.0000 H       1  UNL1        0.0277
     20 H           3.4467   -1.8233    0.0000 H       1  UNL1        0.0277
     21 H           5.0769   -1.9105    0.0000 H       1  UNL1        0.0272
     22 H           5.8380   -1.6219    0.0000 H       1  UNL1        0.0272
     23 H           6.3316   -0.9462    0.0000 H       1  UNL1        0.0269
     24 H           6.3751   -0.1334    0.0000 H       1  UNL1        0.0269
     25 H           5.3819    1.9781    0.0000 H       1  UNL1        0.0302
     26 H           3.4378    1.9407    0.0000 H       1  UNL1        0.0269
     27 H           3.0393    1.2504    0.0000 H       1  UNL1        0.0269
     28 H           4.9144    2.3330    0.0000 H       1  UNL1        0.0268
     29 H           4.1174    2.3330    0.0000 H       1  UNL1        0.0268
     30 H           4.5130   -2.2721    0.0000 H       1  UNL1        0.0236
     31 H           5.3886   -2.3195    0.0000 H       1  UNL1        0.0236
     32 H           5.4360   -1.4440    0.0000 H       1  UNL1        0.0236
     33 H           1.7468   -0.1514    0.0000 H       1  UNL1        0.0235
     34 H           1.4340   -0.9705    0.0000 H       1  UNL1        0.0235
     35 H           2.2532   -1.2833    0.0000 H       1  UNL1        0.0235
     36 H           2.7025    0.8486    0.0000 H       1  UNL1        0.0235
     37 H           1.8268    0.8930    0.0000 H       1  UNL1        0.0235
     38 H           1.7824    0.0173    0.0000 H       1  UNL1        0.0235
     39 H           3.8575   -1.3953    0.0000 H       1  UNL1        0.2102
     40 H           6.5579    1.3211    0.0000 H       1  UNL1        0.0233
     41 H           6.7849    2.1681    0.0000 H       1  UNL1        0.0233
     42 H           5.9379    2.3950    0.0000 H       1  UNL1        0.0233
@<TRIPOS>BOND
     1     2     1    1
     2     1    39    1
     3     2     3    1
     4     2     4    1
     5     2     5    1
     6     3     7    1
     7     3     8    1
     8     3    13    1
     9     4     6    1
    10     4    11    1
    11     4    17    1
    12     5     9    1
    13     5    10    1
    14     5    18    1
    15     6     7    1
    16     6    14    1
    17     6    15    1
    18     7    19    1
    19     7    20    1
    20     8     9    1
    21     8    21    1
    22     8    22    1
    23     9    23    1
    24     9    24    1
    25    10    12    1
    26    10    16    1
    27    10    25    1
    28    11    12    1
    29    11    26    1
    30    11    27    1
    31    12    28    1
    32    12    29    1
    33    13    30    1
    34    13    31    1
    35    13    32    1
    36    14    33    1
    37    14    34    1
    38    14    35    1
    39    15    36    1
    40    15    37    1
    41    15    38    1
    42    16    40    1
    43    16    41    1
    44    16    42    1
