@<TRIPOS>MOLECULE
IMPHY006464
 26 27 0 0 0
SMALL
GASTEIGER

@<TRIPOS>ATOM
      1 O           5.2619   -0.8474    0.0000 O.3     1  UNL1       -0.4220
      2 O           4.9889   -2.6027    0.0000 O.2     1  UNL1       -0.2445
      3 C           4.3211    1.6521    0.0000 C.3     1  UNL1       -0.0248
      4 C           4.6783   -0.0427    0.0000 C.2     1  UNL1        0.1362
      5 C           3.7320   -0.3474    0.0000 C.ar    1  UNL1        0.0310
      6 C           4.9889    0.9078    0.0000 C.2     1  UNL1       -0.0383
      7 C           3.7320   -1.3474    0.0000 C.ar    1  UNL1        0.0700
      8 C           4.6318    2.6027    0.0000 C.3     1  UNL1       -0.0591
      9 C           3.3426    1.4459    0.0000 C.3     1  UNL1       -0.0591
     10 C           2.8660    0.1526    0.0000 C.ar    1  UNL1       -0.0503
     11 C           4.6783   -1.6521    0.0000 C.2     1  UNL1        0.3451
     12 C           2.8660   -1.8474    0.0000 C.ar    1  UNL1       -0.0471
     13 C           2.0000   -0.3474    0.0000 C.ar    1  UNL1       -0.0610
     14 C           2.0000   -1.3474    0.0000 C.ar    1  UNL1       -0.0609
     15 H           4.1285    1.0628    0.0000 H       1  UNL1        0.0339
     16 H           5.5956    1.0357    0.0000 H       1  UNL1        0.0611
     17 H           3.2147    2.0526    0.0000 H       1  UNL1        0.0235
     18 H           2.7359    1.3181    0.0000 H       1  UNL1        0.0235
     19 H           5.2211    2.4100    0.0000 H       1  UNL1        0.0235
     20 H           4.8244    3.1920    0.0000 H       1  UNL1        0.0235
     21 H           4.0424    2.7953    0.0000 H       1  UNL1        0.0235
     22 H           3.4704    0.8393    0.0000 H       1  UNL1        0.0235
     23 H           2.8660    0.7726    0.0000 H       1  UNL1        0.0625
     24 H           2.8660   -2.4674    0.0000 H       1  UNL1        0.0626
     25 H           1.4631   -0.0374    0.0000 H       1  UNL1        0.0618
     26 H           1.4631   -1.6574    0.0000 H       1  UNL1        0.0618
@<TRIPOS>BOND
     1     1     4    1
     2     1    11    1
     3     2    11    2
     4     3     6    1
     5     3     8    1
     6     3     9    1
     7     3    15    1
     8     4     5    1
     9     4     6    2
    10     5     7   ar
    11     5    10   ar
    12     6    16    1
    13     7    11    1
    14     7    12   ar
    15     8    19    1
    16     8    20    1
    17     8    21    1
    18     9    17    1
    19     9    18    1
    20     9    22    1
    21    10    13   ar
    22    10    23    1
    23    12    14   ar
    24    12    24    1
    25    13    14   ar
    26    13    25    1
    27    14    26    1
