@<TRIPOS>MOLECULE
IMPHY007491
 33 35 0 0 0
SMALL
GASTEIGER

@<TRIPOS>ATOM
      1 O           6.0682    1.8246    0.0000 O.2     1  UNL1       -0.2865
      2 O           6.0682   -2.1754    0.0000 O.2     1  UNL1       -0.2866
      3 O           9.5984   -1.1995    0.0000 O.3     1  UNL1       -0.5059
      4 O           4.3198    1.8592    0.0000 O.3     1  UNL1       -0.5059
      5 O           2.5381   -1.1995    0.0000 O.3     1  UNL1       -0.5066
      6 O          10.4663    0.3521    0.0000 O.3     1  UNL1       -0.4770
      7 O           9.5945    1.8488    0.0000 O.2     1  UNL1       -0.2450
      8 C           6.9343    0.3246    0.0000 C.ar    1  UNL1        0.0371
      9 C           6.9343   -0.6754    0.0000 C.ar    1  UNL1        0.0368
     10 C           7.8282    0.8593    0.0000 C.ar    1  UNL1       -0.0215
     11 C           5.2022    0.3246    0.0000 C.ar    1  UNL1        0.0747
     12 C           5.2022   -0.6754    0.0000 C.ar    1  UNL1        0.0400
     13 C           6.0682    0.8246    0.0000 C.2     1  UNL1        0.1983
     14 C           6.0682   -1.1754    0.0000 C.2     1  UNL1        0.1949
     15 C           8.7343    0.3454    0.0000 C.ar    1  UNL1        0.1037
     16 C           7.8282   -1.2100    0.0000 C.ar    1  UNL1       -0.0078
     17 C           8.7343   -0.6962    0.0000 C.ar    1  UNL1        0.1318
     18 C           4.3083    0.8593    0.0000 C.ar    1  UNL1        0.1318
     19 C           4.3083   -1.2100    0.0000 C.ar    1  UNL1       -0.0084
     20 C           7.8167    1.8592    0.0000 C.3     1  UNL1       -0.0381
     21 C           3.4022   -0.6962    0.0000 C.ar    1  UNL1        0.1210
     22 C           3.4022    0.3454    0.0000 C.ar    1  UNL1        0.0221
     23 C           9.5984    0.8488    0.0000 C.2     1  UNL1        0.3406
     24 H           7.8210   -1.8300    0.0000 H       1  UNL1        0.0661
     25 H           4.3154   -1.8300    0.0000 H       1  UNL1        0.0661
     26 H           8.4366    1.8664    0.0000 H       1  UNL1        0.0278
     27 H           7.8095    2.4792    0.0000 H       1  UNL1        0.0278
     28 H           7.1967    1.8520    0.0000 H       1  UNL1        0.0278
     29 H           2.8665    0.6575    0.0000 H       1  UNL1        0.0691
     30 H           9.5960   -1.8195    0.0000 H       1  UNL1        0.2922
     31 H           3.7865    2.1754    0.0000 H       1  UNL1        0.2922
     32 H           2.0000   -0.8916    0.0000 H       1  UNL1        0.2921
     33 H          11.0021    0.6642    0.0000 H       1  UNL1        0.2954
@<TRIPOS>BOND
     1     1    13    2
     2     2    14    2
     3     3    17    1
     4     3    30    1
     5     4    18    1
     6     4    31    1
     7     5    21    1
     8     5    32    1
     9     6    23    1
    10     6    33    1
    11     7    23    2
    12     8     9   ar
    13     8    10   ar
    14     8    13    1
    15     9    14    1
    16     9    16   ar
    17    10    15   ar
    18    10    20    1
    19    11    12   ar
    20    11    13    1
    21    11    18   ar
    22    12    14    1
    23    12    19   ar
    24    15    17   ar
    25    15    23    1
    26    16    17   ar
    27    16    24    1
    28    18    22   ar
    29    19    21   ar
    30    19    25    1
    31    20    26    1
    32    20    27    1
    33    20    28    1
    34    21    22   ar
    35    22    29    1
