@<TRIPOS>MOLECULE
IMPHY012313
 59 58 0 0 0
SMALL
GASTEIGER

@<TRIPOS>ATOM
      1 O           2.8660    0.2500    0.0000 O.3     1  UNL1       -0.4679
      2 O           3.7320   -1.2500    0.0000 O.2     1  UNL1       -0.2509
      3 C          11.5263    0.2500    0.0000 C.3     1  UNL1       -0.0531
      4 C          12.3923   -0.2500    0.0000 C.3     1  UNL1       -0.0531
      5 C          10.6603   -0.2500    0.0000 C.3     1  UNL1       -0.0531
      6 C          13.2583    0.2500    0.0000 C.3     1  UNL1       -0.0531
      7 C           9.7942    0.2500    0.0000 C.3     1  UNL1       -0.0531
      8 C          14.1244   -0.2500    0.0000 C.3     1  UNL1       -0.0530
      9 C           8.9282   -0.2500    0.0000 C.3     1  UNL1       -0.0531
     10 C          14.9904    0.2500    0.0000 C.3     1  UNL1       -0.0528
     11 C          15.8564   -0.2500    0.0000 C.3     1  UNL1       -0.0507
     12 C           8.0622    0.2500    0.0000 C.3     1  UNL1       -0.0531
     13 C          16.7224    0.2500    0.0000 C.3     1  UNL1       -0.0467
     14 C           7.1962   -0.2500    0.0000 C.3     1  UNL1       -0.0530
     15 C           6.3301    0.2500    0.0000 C.3     1  UNL1       -0.0526
     16 C           5.4641   -0.2500    0.0000 C.3     1  UNL1       -0.0430
     17 C          17.5885   -0.2500    0.0000 C.3     1  UNL1       -0.0627
     18 C          16.7224    1.2500    0.0000 C.3     1  UNL1       -0.0627
     19 C           4.5981    0.2500    0.0000 C.3     1  UNL1        0.0449
     20 C           3.7320   -0.2500    0.0000 C.2     1  UNL1        0.3068
     21 C           2.0000   -0.2500    0.0000 C.3     1  UNL1        0.0817
     22 H          11.9248    0.7249    0.0000 H       1  UNL1        0.0265
     23 H          11.1278    0.7249    0.0000 H       1  UNL1        0.0265
     24 H          11.9938   -0.7249    0.0000 H       1  UNL1        0.0265
     25 H          12.7908   -0.7249    0.0000 H       1  UNL1        0.0265
     26 H          10.2617   -0.7249    0.0000 H       1  UNL1        0.0265
     27 H          11.0588   -0.7249    0.0000 H       1  UNL1        0.0265
     28 H          13.6569    0.7249    0.0000 H       1  UNL1        0.0265
     29 H          12.8598    0.7249    0.0000 H       1  UNL1        0.0265
     30 H          10.1928    0.7249    0.0000 H       1  UNL1        0.0265
     31 H           9.3957    0.7249    0.0000 H       1  UNL1        0.0265
     32 H          13.7258   -0.7249    0.0000 H       1  UNL1        0.0265
     33 H          14.5229   -0.7249    0.0000 H       1  UNL1        0.0265
     34 H           8.5297   -0.7249    0.0000 H       1  UNL1        0.0265
     35 H           9.3267   -0.7249    0.0000 H       1  UNL1        0.0265
     36 H          15.3889    0.7249    0.0000 H       1  UNL1        0.0265
     37 H          14.5919    0.7249    0.0000 H       1  UNL1        0.0265
     38 H          15.4579   -0.7249    0.0000 H       1  UNL1        0.0268
     39 H          16.2549   -0.7249    0.0000 H       1  UNL1        0.0268
     40 H           8.4607    0.7249    0.0000 H       1  UNL1        0.0265
     41 H           7.6636    0.7249    0.0000 H       1  UNL1        0.0265
     42 H          16.1855    0.5600    0.0000 H       1  UNL1        0.0295
     43 H           6.7976   -0.7249    0.0000 H       1  UNL1        0.0265
     44 H           7.5947   -0.7249    0.0000 H       1  UNL1        0.0265
     45 H           6.7287    0.7249    0.0000 H       1  UNL1        0.0265
     46 H           5.9316    0.7249    0.0000 H       1  UNL1        0.0265
     47 H           5.0656   -0.7249    0.0000 H       1  UNL1        0.0270
     48 H           5.8626   -0.7249    0.0000 H       1  UNL1        0.0270
     49 H          17.2785   -0.7869    0.0000 H       1  UNL1        0.0232
     50 H          18.1254   -0.5600    0.0000 H       1  UNL1        0.0232
     51 H          17.8985    0.2869    0.0000 H       1  UNL1        0.0232
     52 H          17.3424    1.2500    0.0000 H       1  UNL1        0.0232
     53 H          16.7224    1.8700    0.0000 H       1  UNL1        0.0232
     54 H          16.1024    1.2500    0.0000 H       1  UNL1        0.0232
     55 H           4.9966    0.7249    0.0000 H       1  UNL1        0.0377
     56 H           4.1996    0.7249    0.0000 H       1  UNL1        0.0377
     57 H           1.6900    0.2869    0.0000 H       1  UNL1        0.0661
     58 H           1.4631   -0.5600    0.0000 H       1  UNL1        0.0661
     59 H           2.3100   -0.7869    0.0000 H       1  UNL1        0.0661
@<TRIPOS>BOND
     1     1    20    1
     2     1    21    1
     3     2    20    2
     4     3     4    1
     5     3     5    1
     6     3    22    1
     7     3    23    1
     8     4     6    1
     9     4    24    1
    10     4    25    1
    11     5     7    1
    12     5    26    1
    13     5    27    1
    14     6     8    1
    15     6    28    1
    16     6    29    1
    17     7     9    1
    18     7    30    1
    19     7    31    1
    20     8    10    1
    21     8    32    1
    22     8    33    1
    23     9    12    1
    24     9    34    1
    25     9    35    1
    26    10    11    1
    27    10    36    1
    28    10    37    1
    29    11    13    1
    30    11    38    1
    31    11    39    1
    32    12    14    1
    33    12    40    1
    34    12    41    1
    35    13    17    1
    36    13    18    1
    37    13    42    1
    38    14    15    1
    39    14    43    1
    40    14    44    1
    41    15    16    1
    42    15    45    1
    43    15    46    1
    44    16    19    1
    45    16    47    1
    46    16    48    1
    47    17    49    1
    48    17    50    1
    49    17    51    1
    50    18    52    1
    51    18    53    1
    52    18    54    1
    53    19    20    1
    54    19    55    1
    55    19    56    1
    56    21    57    1
    57    21    58    1
    58    21    59    1
