@<TRIPOS>MOLECULE
IMPHY017240
 27 27 0 0 0
SMALL
GASTEIGER

@<TRIPOS>ATOM
      1 C           3.7320    0.5000    0.0000 C.3     1  UNL1       -0.0411
      2 C           2.8660    0.0000    0.0000 C.3     1  UNL1       -0.0413
      3 C           4.5981   -1.0000    0.0000 C.3     1  UNL1       -0.0436
      4 C           4.5981    0.0000    0.0000 C.3     1  UNL1       -0.0476
      5 C           2.8660   -1.0000    0.0000 C.3     1  UNL1       -0.0500
      6 C           3.7320   -1.5000    0.0000 C.3     1  UNL1       -0.0502
      7 C           3.7320    1.5000    0.0000 C.3     1  UNL1       -0.0622
      8 C           2.0000    0.5000    0.0000 C.3     1  UNL1       -0.0622
      9 C           5.4641   -1.5000    0.0000 C.3     1  UNL1       -0.0624
     10 H           4.2690    0.8100    0.0000 H       1  UNL1        0.0301
     11 H           2.8660    0.6200    0.0000 H       1  UNL1        0.0301
     12 H           4.5981   -1.6200    0.0000 H       1  UNL1        0.0298
     13 H           5.2087   -0.1077    0.0000 H       1  UNL1        0.0271
     14 H           4.8101    0.5826    0.0000 H       1  UNL1        0.0271
     15 H           2.2554   -0.8923    0.0000 H       1  UNL1        0.0268
     16 H           2.6540   -1.5826    0.0000 H       1  UNL1        0.0268
     17 H           3.3335   -1.9750    0.0000 H       1  UNL1        0.0268
     18 H           4.1306   -1.9750    0.0000 H       1  UNL1        0.0268
     19 H           4.3520    1.5000    0.0000 H       1  UNL1        0.0233
     20 H           3.7320    2.1200    0.0000 H       1  UNL1        0.0233
     21 H           3.1120    1.5000    0.0000 H       1  UNL1        0.0233
     22 H           2.3100    1.0369    0.0000 H       1  UNL1        0.0233
     23 H           1.4631    0.8100    0.0000 H       1  UNL1        0.0233
     24 H           1.6900   -0.0369    0.0000 H       1  UNL1        0.0233
     25 H           5.1541   -2.0369    0.0000 H       1  UNL1        0.0232
     26 H           6.0010   -1.8100    0.0000 H       1  UNL1        0.0232
     27 H           5.7741   -0.9631    0.0000 H       1  UNL1        0.0232
@<TRIPOS>BOND
     1     1     2    1
     2     1     4    1
     3     1     7    1
     4     1    10    1
     5     2     5    1
     6     2     8    1
     7     2    11    1
     8     3     4    1
     9     3     6    1
    10     3     9    1
    11     3    12    1
    12     4    13    1
    13     4    14    1
    14     5     6    1
    15     5    15    1
    16     5    16    1
    17     6    17    1
    18     6    18    1
    19     7    19    1
    20     7    20    1
    21     7    21    1
    22     8    22    1
    23     8    23    1
    24     8    24    1
    25     9    25    1
    26     9    26    1
    27     9    27    1
