@<TRIPOS>MOLECULE
IMPHY005152
 37 39 0 0 0
SMALL
GASTEIGER

@<TRIPOS>ATOM
      1 O           3.7230   -0.4117    0.0000 O.3     1  UNL1       -0.4602
      2 O           2.0000    0.0205    0.0000 O.2     1  UNL1       -0.2505
      3 C           5.4786   -0.3379    0.0000 C.3     1  UNL1        0.0237
      4 C           4.5777    0.0960    0.0000 C.3     1  UNL1        0.1136
      5 C           4.3551    1.0709    0.0000 C.3     1  UNL1        0.0097
      6 C           6.3796    0.0960    0.0000 C.3     1  UNL1       -0.0100
      7 C           3.3648    1.1574    0.0000 C.3     1  UNL1        0.0598
      8 C           4.9786    1.8527    0.0000 C.3     1  UNL1       -0.0424
      9 C           7.0647   -0.6243    0.0000 C.3     1  UNL1       -0.0422
     10 C           5.6146   -1.3227    0.0000 C.2     1  UNL1       -0.0694
     11 C           6.6021    1.0709    0.0000 C.2     1  UNL1       -0.0728
     12 C           6.5929   -1.4993    0.0000 C.3     1  UNL1       -0.0310
     13 C           5.9786    1.8527    0.0000 C.3     1  UNL1       -0.0313
     14 C           2.9749    0.2430    0.0000 C.2     1  UNL1        0.3106
     15 C           2.8504    2.0150    0.0000 C.3     1  UNL1       -0.0519
     16 C           4.8930   -2.0150    0.0000 C.2     1  UNL1       -0.0990
     17 C           7.5770    1.2934    0.0000 C.2     1  UNL1       -0.0992
     18 H           4.7916   -0.8384    0.0000 H       1  UNL1        0.0387
     19 H           4.6147   -0.7532    0.0000 H       1  UNL1        0.0743
     20 H           4.0200    1.8520    0.0000 H       1  UNL1        0.0345
     21 H           7.1993    0.3210    0.0000 H       1  UNL1        0.0353
     22 H           3.6936    1.6831    0.0000 H       1  UNL1        0.0415
     23 H           5.1166    2.4572    0.0000 H       1  UNL1        0.0272
     24 H           4.4200    2.1217    0.0000 H       1  UNL1        0.0272
     25 H           7.5765   -0.9743    0.0000 H       1  UNL1        0.0274
     26 H           7.4666   -0.1522    0.0000 H       1  UNL1        0.0274
     27 H           6.4192   -2.0945    0.0000 H       1  UNL1        0.0310
     28 H           7.1665   -1.7346    0.0000 H       1  UNL1        0.0310
     29 H           6.5372    2.1217    0.0000 H       1  UNL1        0.0310
     30 H           5.8407    2.4572    0.0000 H       1  UNL1        0.0310
     31 H           3.3821    2.3339    0.0000 H       1  UNL1        0.0238
     32 H           2.5315    2.5467    0.0000 H       1  UNL1        0.0238
     33 H           2.3188    1.6961    0.0000 H       1  UNL1        0.0238
     34 H           4.2976   -1.8421    0.0000 H       1  UNL1        0.0535
     35 H           5.0411   -2.6170    0.0000 H       1  UNL1        0.0535
     36 H           7.9988    0.8389    0.0000 H       1  UNL1        0.0534
     37 H           7.7598    1.8859    0.0000 H       1  UNL1        0.0534
@<TRIPOS>BOND
     1     1     4    1
     2     1    14    1
     3     2    14    2
     4     3     4    1
     5     3     6    1
     6     3    10    1
     7     3    18    1
     8     4     5    1
     9     4    19    1
    10     5     7    1
    11     5     8    1
    12     5    20    1
    13     6     9    1
    14     6    11    1
    15     6    21    1
    16     7    14    1
    17     7    15    1
    18     7    22    1
    19     8    13    1
    20     8    23    1
    21     8    24    1
    22     9    12    1
    23     9    25    1
    24     9    26    1
    25    10    12    1
    26    10    16    2
    27    11    13    1
    28    11    17    2
    29    12    27    1
    30    12    28    1
    31    13    29    1
    32    13    30    1
    33    15    31    1
    34    15    32    1
    35    15    33    1
    36    16    34    1
    37    16    35    1
    38    17    36    1
    39    17    37    1
