@<TRIPOS>MOLECULE
IMPHY015778
 94 99 0 0 0
SMALL
GASTEIGER

@<TRIPOS>ATOM
      1 O          10.4037    0.4050    0.0000 O.3     1  UNL1       -0.3313
      2 O           7.8056   -2.0950    0.0000 O.3     1  UNL1       -0.3405
      3 O           9.5376   -2.0950    0.0000 O.3     1  UNL1       -0.3460
      4 O          11.2697   -2.0950    0.0000 O.3     1  UNL1       -0.3865
      5 O          11.2697    1.9050    0.0000 O.3     1  UNL1       -0.4532
      6 O          13.0017   -1.0950    0.0000 O.3     1  UNL1       -0.3864
      7 O           4.2755    3.9358    0.0000 O.3     1  UNL1       -0.3313
      8 O          13.0017    0.9050    0.0000 O.3     1  UNL1       -0.3829
      9 O           9.5376   -4.0950    0.0000 O.3     1  UNL1       -0.3841
     10 O           7.8056   -5.0950    0.0000 O.3     1  UNL1       -0.3864
     11 O           6.0736   -4.0950    0.0000 O.3     1  UNL1       -0.3865
     12 O           6.0075    3.9292    0.0000 O.3     1  UNL1       -0.4606
     13 O           4.2639    0.9358    0.0000 O.3     1  UNL1       -0.3864
     14 O           2.5357    1.9425    0.0000 O.3     1  UNL1       -0.3865
     15 O           5.9998    1.9292    0.0000 O.3     1  UNL1       -0.3829
     16 O           6.0736   -1.0950    0.0000 O.3     1  UNL1       -0.3924
     17 O           2.5473    4.9425    0.0000 O.3     1  UNL1       -0.3924
     18 O           9.5376    3.9050    0.0000 O.2     1  UNL1       -0.4507
     19 O           9.5376    0.9050    0.0000 O.2     1  UNL1       -0.2830
     20 O           7.7892    0.8704    0.0000 O.3     1  UNL1       -0.5058
     21 O          13.8678    5.4050    0.0000 O.3     1  UNL1       -0.5068
     22 C          10.4037   -0.5950    0.0000 C.3     1  UNL1        0.1144
     23 C          11.2697   -1.0950    0.0000 C.3     1  UNL1        0.1120
     24 C          12.1357   -0.5950    0.0000 C.3     1  UNL1        0.1152
     25 C          12.1357    0.4050    0.0000 C.3     1  UNL1        0.1454
     26 C           8.6716   -3.5950    0.0000 C.3     1  UNL1        0.1341
     27 C           8.6716   -2.5950    0.0000 C.3     1  UNL1        0.1880
     28 C           7.8056   -4.0950    0.0000 C.3     1  UNL1        0.1141
     29 C           6.9396   -3.5950    0.0000 C.3     1  UNL1        0.1119
     30 C           6.9396   -2.5950    0.0000 C.3     1  UNL1        0.1130
     31 C          11.2697    0.9050    0.0000 C.3     1  UNL1        0.2311
     32 C           9.5376   -1.0950    0.0000 C.3     1  UNL1        0.0796
     33 C           4.2678    1.9358    0.0000 C.3     1  UNL1        0.1152
     34 C           3.4037    2.4392    0.0000 C.3     1  UNL1        0.1120
     35 C           5.1357    2.4325    0.0000 C.3     1  UNL1        0.1454
     36 C           3.4075    3.4392    0.0000 C.3     1  UNL1        0.1140
     37 C           6.0736   -2.0950    0.0000 C.3     1  UNL1        0.0730
     38 C           5.1396    3.4325    0.0000 C.3     1  UNL1        0.2308
     39 C           2.5434    3.9425    0.0000 C.3     1  UNL1        0.0731
     40 C          10.4037    2.4050    0.0000 C.ar    1  UNL1        0.2138
     41 C           6.8716    3.4258    0.0000 C.ar    1  UNL1        0.1310
     42 C           9.5376    1.9050    0.0000 C.ar    1  UNL1        0.2382
     43 C          10.4037    3.4050    0.0000 C.ar    1  UNL1        0.1809
     44 C           8.6716    2.4050    0.0000 C.ar    1  UNL1        0.1092
     45 C           8.6716    3.4050    0.0000 C.ar    1  UNL1        0.1465
     46 C           7.7777    3.9397    0.0000 C.ar    1  UNL1        0.0235
     47 C           6.8716    2.3842    0.0000 C.ar    1  UNL1        0.0226
     48 C           7.7777    1.8703    0.0000 C.ar    1  UNL1        0.1348
     49 C          11.2697    3.9050    0.0000 C.ar    1  UNL1        0.0213
     50 C          12.1357    3.4050    0.0000 C.ar    1  UNL1       -0.0475
     51 C          11.2697    4.9050    0.0000 C.ar    1  UNL1       -0.0475
     52 C          13.0017    3.9050    0.0000 C.ar    1  UNL1       -0.0195
     53 C          12.1357    5.4050    0.0000 C.ar    1  UNL1       -0.0195
     54 C          13.0017    4.9050    0.0000 C.ar    1  UNL1        0.1169
     55 H           9.8667   -0.2850    0.0000 H       1  UNL1        0.0647
     56 H          10.7328   -1.4050    0.0000 H       1  UNL1        0.0647
     57 H          12.1357   -1.2150    0.0000 H       1  UNL1        0.0648
     58 H          12.6727    0.0950    0.0000 H       1  UNL1        0.0683
     59 H           9.2086   -3.2850    0.0000 H       1  UNL1        0.0671
     60 H           8.6716   -1.9750    0.0000 H       1  UNL1        0.0937
     61 H           8.3425   -4.4050    0.0000 H       1  UNL1        0.0648
     62 H           6.4026   -3.2850    0.0000 H       1  UNL1        0.0647
     63 H           6.9396   -1.9750    0.0000 H       1  UNL1        0.0647
     64 H          10.7328    1.2150    0.0000 H       1  UNL1        0.1084
     65 H           9.3256   -0.5124    0.0000 H       1  UNL1        0.0587
     66 H           8.9271   -1.2027    0.0000 H       1  UNL1        0.0587
     67 H           3.7296    1.6279    0.0000 H       1  UNL1        0.0648
     68 H           2.8680    2.7512    0.0000 H       1  UNL1        0.0647
     69 H           5.6738    2.7404    0.0000 H       1  UNL1        0.0683
     70 H           3.4099    4.0592    0.0000 H       1  UNL1        0.0647
     71 H           5.4630   -1.9873    0.0000 H       1  UNL1        0.0584
     72 H           5.8615   -2.6776    0.0000 H       1  UNL1        0.0584
     73 H           5.1420    4.0525    0.0000 H       1  UNL1        0.1084
     74 H          11.8066   -2.4050    0.0000 H       1  UNL1        0.2100
     75 H          13.5387   -0.7850    0.0000 H       1  UNL1        0.2100
     76 H          13.0017    1.5250    0.0000 H       1  UNL1        0.2102
     77 H          10.0746   -3.7850    0.0000 H       1  UNL1        0.2101
     78 H           7.2687   -5.4050    0.0000 H       1  UNL1        0.2100
     79 H           5.5366   -3.7850    0.0000 H       1  UNL1        0.2100
     80 H           1.9333    4.0525    0.0000 H       1  UNL1        0.0584
     81 H           2.3292    3.3607    0.0000 H       1  UNL1        0.0584
     82 H           3.7258    0.6279    0.0000 H       1  UNL1        0.2100
     83 H           2.0000    2.2546    0.0000 H       1  UNL1        0.2100
     84 H           5.9974    1.3092    0.0000 H       1  UNL1        0.2102
     85 H           5.5366   -0.7850    0.0000 H       1  UNL1        0.2095
     86 H           7.7848    4.5596    0.0000 H       1  UNL1        0.0691
     87 H           6.3359    2.0721    0.0000 H       1  UNL1        0.0691
     88 H           2.0116    5.2546    0.0000 H       1  UNL1        0.2095
     89 H          12.1357    2.7850    0.0000 H       1  UNL1        0.0626
     90 H          10.7328    5.2150    0.0000 H       1  UNL1        0.0626
     91 H           7.2559    0.5542    0.0000 H       1  UNL1        0.2922
     92 H          13.5387    3.5950    0.0000 H       1  UNL1        0.0654
     93 H          12.1357    6.0250    0.0000 H       1  UNL1        0.0654
     94 H          14.4047    5.0950    0.0000 H       1  UNL1        0.2921
@<TRIPOS>BOND
     1     1    22    1
     2     1    31    1
     3     2    27    1
     4     2    30    1
     5    27     3    1
     6     3    32    1
     7    23     4    1
     8     4    74    1
     9    31     5    1
    10     5    40    1
    11     6    24    1
    12     6    75    1
    13     7    36    1
    14     7    38    1
    15     8    25    1
    16     8    76    1
    17     9    26    1
    18     9    77    1
    19    28    10    1
    20    10    78    1
    21    29    11    1
    22    11    79    1
    23    38    12    1
    24    12    41    1
    25    33    13    1
    26    13    82    1
    27    34    14    1
    28    14    83    1
    29    15    35    1
    30    15    84    1
    31    16    37    1
    32    16    85    1
    33    17    39    1
    34    17    88    1
    35    18    43   ar
    36    18    45   ar
    37    19    42    2
    38    20    48    1
    39    20    91    1
    40    21    54    1
    41    21    94    1
    42    22    23    1
    43    22    32    1
    44    22    55    1
    45    23    24    1
    46    23    56    1
    47    24    25    1
    48    24    57    1
    49    25    31    1
    50    25    58    1
    51    26    27    1
    52    26    28    1
    53    26    59    1
    54    27    60    1
    55    28    29    1
    56    28    61    1
    57    29    30    1
    58    29    62    1
    59    30    37    1
    60    30    63    1
    61    31    64    1
    62    32    65    1
    63    32    66    1
    64    33    34    1
    65    33    35    1
    66    33    67    1
    67    34    36    1
    68    34    68    1
    69    35    38    1
    70    35    69    1
    71    36    39    1
    72    36    70    1
    73    37    71    1
    74    37    72    1
    75    38    73    1
    76    39    80    1
    77    39    81    1
    78    40    42   ar
    79    40    43   ar
    80    41    46   ar
    81    41    47   ar
    82    42    44   ar
    83    43    49    1
    84    44    45   ar
    85    44    48   ar
    86    45    46   ar
    87    46    86    1
    88    47    48   ar
    89    47    87    1
    90    49    50   ar
    91    49    51   ar
    92    50    52   ar
    93    50    89    1
    94    51    53   ar
    95    51    90    1
    96    52    54   ar
    97    52    92    1
    98    53    54   ar
    99    53    93    1
