@<TRIPOS>MOLECULE
IMPHY013044
 33 35 0 0 0
SMALL
GASTEIGER

@<TRIPOS>ATOM
      1 O           2.9383   -1.2654    0.0000 O.3     1  UNL1       -0.4914
      2 O           2.3053    0.6827    0.0000 O.3     1  UNL1       -0.4914
      3 O           6.6750   -1.6758    0.0000 O.2     1  UNL1       -0.2869
      4 O           7.9325    2.1943    0.0000 O.2     1  UNL1       -0.2857
      5 N           5.8101    1.5952    0.0000 N.ar    1  UNL1       -0.3510
      6 C           6.3101    0.0564    0.0000 C.ar    1  UNL1        0.0581
      7 C           5.3101    0.0564    0.0000 C.ar    1  UNL1        0.0149
      8 C           5.0010    1.0074    0.0000 C.ar    1  UNL1        0.0514
      9 C           6.6191    1.0074    0.0000 C.ar    1  UNL1        0.0985
     10 C           6.9950   -0.7284    0.0000 C.2     1  UNL1        0.1918
     11 C           4.6251   -0.7284    0.0000 C.ar    1  UNL1       -0.0064
     12 C           3.9856    1.2397    0.0000 C.ar    1  UNL1        0.0076
     13 C           7.6345    1.2397    0.0000 C.2     1  UNL1        0.2032
     14 C           8.0155   -0.5196    0.0000 C.2     1  UNL1        0.0006
     15 C           3.6046   -0.5196    0.0000 C.ar    1  UNL1        0.1622
     16 C           3.2827    0.4710    0.0000 C.ar    1  UNL1        0.1635
     17 C           8.3374    0.4710    0.0000 C.2     1  UNL1       -0.0063
     18 C           8.6818   -1.2654    0.0000 C.3     1  UNL1       -0.0359
     19 C           3.2510   -2.2152    0.0000 C.3     1  UNL1        0.0790
     20 C           2.0000    1.6349    0.0000 C.3     1  UNL1        0.0790
     21 H           5.8101    2.2152    0.0000 H       1  UNL1        0.1660
     22 H           4.8235   -1.3158    0.0000 H       1  UNL1        0.0662
     23 H           3.8009    1.8315    0.0000 H       1  UNL1        0.0676
     24 H           8.9434    0.6022    0.0000 H       1  UNL1        0.0660
     25 H           8.2194   -1.6784    0.0000 H       1  UNL1        0.0279
     26 H           9.0949   -1.7277    0.0000 H       1  UNL1        0.0279
     27 H           9.1441   -0.8523    0.0000 H       1  UNL1        0.0279
     28 H           2.6621   -2.4091    0.0000 H       1  UNL1        0.0660
     29 H           3.4448   -2.8041    0.0000 H       1  UNL1        0.0660
     30 H           3.8399   -2.0214    0.0000 H       1  UNL1        0.0660
     31 H           2.5904    1.8242    0.0000 H       1  UNL1        0.0660
     32 H           1.8107    2.2253    0.0000 H       1  UNL1        0.0660
     33 H           1.4096    1.4456    0.0000 H       1  UNL1        0.0660
@<TRIPOS>BOND
     1     1    15    1
     2     1    19    1
     3     2    16    1
     4     2    20    1
     5     3    10    2
     6     4    13    2
     7     5     8   ar
     8     5     9   ar
     9     5    21    1
    10     6     7   ar
    11     6     9   ar
    12     6    10    1
    13     7     8   ar
    14     7    11   ar
    15     8    12   ar
    16     9    13    1
    17    10    14    1
    18    11    15   ar
    19    11    22    1
    20    12    16   ar
    21    12    23    1
    22    13    17    1
    23    14    17    2
    24    14    18    1
    25    15    16   ar
    26    17    24    1
    27    18    25    1
    28    18    26    1
    29    18    27    1
    30    19    28    1
    31    19    29    1
    32    19    30    1
    33    20    31    1
    34    20    32    1
    35    20    33    1
