@<TRIPOS>MOLECULE
IMPHY004240
 52 53 0 0 0
SMALL
GASTEIGER

@<TRIPOS>ATOM
      1 O           7.1962   -0.5000    0.0000 O.3     1  UNL1       -0.3947
      2 O           3.7320    0.5000    0.0000 O.3     1  UNL1       -0.3947
      3 O           2.8660   -4.0000    0.0000 O.3     1  UNL1       -0.4915
      4 O           8.0622    4.0000    0.0000 O.3     1  UNL1       -0.4915
      5 O           4.5981   -5.0000    0.0000 O.3     1  UNL1       -0.5033
      6 O           6.3301    5.0000    0.0000 O.3     1  UNL1       -0.5033
      7 C           5.4641   -0.5000    0.0000 C.3     1  UNL1       -0.0086
      8 C           5.4641    0.5000    0.0000 C.3     1  UNL1       -0.0086
      9 C           4.5981   -1.0000    0.0000 C.3     1  UNL1       -0.0223
     10 C           6.3301    1.0000    0.0000 C.3     1  UNL1       -0.0223
     11 C           6.3301   -1.0000    0.0000 C.3     1  UNL1        0.0477
     12 C           4.5981    1.0000    0.0000 C.3     1  UNL1        0.0477
     13 C           4.5981   -2.0000    0.0000 C.ar    1  UNL1       -0.0433
     14 C           6.3301    2.0000    0.0000 C.ar    1  UNL1       -0.0433
     15 C           3.7320   -2.5000    0.0000 C.ar    1  UNL1       -0.0131
     16 C           7.1962    2.5000    0.0000 C.ar    1  UNL1       -0.0131
     17 C           5.4641   -2.5000    0.0000 C.ar    1  UNL1       -0.0549
     18 C           5.4641    2.5000    0.0000 C.ar    1  UNL1       -0.0549
     19 C           3.7320   -3.5000    0.0000 C.ar    1  UNL1        0.1615
     20 C           7.1962    3.5000    0.0000 C.ar    1  UNL1        0.1615
     21 C           5.4641   -3.5000    0.0000 C.ar    1  UNL1       -0.0163
     22 C           5.4641    3.5000    0.0000 C.ar    1  UNL1       -0.0163
     23 C           4.5981   -4.0000    0.0000 C.ar    1  UNL1        0.1585
     24 C           6.3301    4.0000    0.0000 C.ar    1  UNL1        0.1585
     25 C           2.0000   -3.5000    0.0000 C.3     1  UNL1        0.0790
     26 C           8.9282    3.5000    0.0000 C.3     1  UNL1        0.0790
     27 H           5.4641   -1.1200    0.0000 H       1  UNL1        0.0329
     28 H           5.4641    1.1200    0.0000 H       1  UNL1        0.0329
     29 H           4.3860   -0.4174    0.0000 H       1  UNL1        0.0317
     30 H           3.9875   -1.1077    0.0000 H       1  UNL1        0.0317
     31 H           6.5422    0.4174    0.0000 H       1  UNL1        0.0317
     32 H           6.9407    1.1077    0.0000 H       1  UNL1        0.0317
     33 H           5.9316   -1.4750    0.0000 H       1  UNL1        0.0560
     34 H           6.7287   -1.4750    0.0000 H       1  UNL1        0.0560
     35 H           4.9966    1.4750    0.0000 H       1  UNL1        0.0560
     36 H           4.1996    1.4750    0.0000 H       1  UNL1        0.0560
     37 H           3.1951   -2.1900    0.0000 H       1  UNL1        0.0658
     38 H           7.7331    2.1900    0.0000 H       1  UNL1        0.0658
     39 H           6.0010   -2.1900    0.0000 H       1  UNL1        0.0621
     40 H           4.9272    2.1900    0.0000 H       1  UNL1        0.0621
     41 H           7.7331   -0.8100    0.0000 H       1  UNL1        0.2094
     42 H           3.1951    0.8100    0.0000 H       1  UNL1        0.2094
     43 H           6.0010   -3.8100    0.0000 H       1  UNL1        0.0655
     44 H           4.9272    3.8100    0.0000 H       1  UNL1        0.0655
     45 H           5.1350   -5.3100    0.0000 H       1  UNL1        0.2923
     46 H           5.7932    5.3100    0.0000 H       1  UNL1        0.2923
     47 H           2.3100   -2.9631    0.0000 H       1  UNL1        0.0660
     48 H           1.4631   -3.1900    0.0000 H       1  UNL1        0.0660
     49 H           1.6900   -4.0369    0.0000 H       1  UNL1        0.0660
     50 H           8.6182    2.9631    0.0000 H       1  UNL1        0.0660
     51 H           9.4651    3.1900    0.0000 H       1  UNL1        0.0660
     52 H           9.2382    4.0369    0.0000 H       1  UNL1        0.0660
@<TRIPOS>BOND
     1     1    11    1
     2     1    41    1
     3     2    12    1
     4     2    42    1
     5     3    19    1
     6     3    25    1
     7     4    20    1
     8     4    26    1
     9     5    23    1
    10     5    45    1
    11     6    24    1
    12     6    46    1
    13     7     8    1
    14     7     9    1
    15     7    11    1
    16     7    27    1
    17     8    10    1
    18     8    12    1
    19     8    28    1
    20     9    13    1
    21     9    29    1
    22     9    30    1
    23    10    14    1
    24    10    31    1
    25    10    32    1
    26    11    33    1
    27    11    34    1
    28    12    35    1
    29    12    36    1
    30    13    15   ar
    31    13    17   ar
    32    14    16   ar
    33    14    18   ar
    34    15    19   ar
    35    15    37    1
    36    16    20   ar
    37    16    38    1
    38    17    21   ar
    39    17    39    1
    40    18    22   ar
    41    18    40    1
    42    19    23   ar
    43    20    24   ar
    44    21    23   ar
    45    21    43    1
    46    22    24   ar
    47    22    44    1
    48    25    47    1
    49    25    48    1
    50    25    49    1
    51    26    50    1
    52    26    51    1
    53    26    52    1
