@<TRIPOS>MOLECULE
IMPHY014970
 102 103 0 0 0
SMALL
GASTEIGER

@<TRIPOS>ATOM
      1 O          11.8100   -4.4742    0.0000 O.3     1  UNL1       -0.3811
      2 O          10.4440   -5.8402    0.0000 O.3     1  UNL1       -0.3856
      3 O          12.3100   -8.3402    0.0000 O.3     1  UNL1       -0.3917
      4 O           2.3100    6.7842    0.0000 O.3     1  UNL1       -0.3914
      5 C          13.1760   -5.8402    0.0000 C.3     1  UNL1        0.0026
      6 C          12.3100   -5.3402    0.0000 C.3     1  UNL1        0.1179
      7 C          11.4440   -5.8402    0.0000 C.3     1  UNL1        0.0982
      8 C          13.1760   -6.8402    0.0000 C.3     1  UNL1       -0.0186
      9 C          11.4440   -6.8402    0.0000 C.3     1  UNL1        0.0049
     10 C          12.3100   -7.3402    0.0000 C.3     1  UNL1        0.0585
     11 C          14.1760   -5.8402    0.0000 C.3     1  UNL1       -0.0567
     12 C          13.9421   -5.1974    0.0000 C.3     1  UNL1       -0.0567
     13 C          10.8012   -5.0742    0.0000 C.3     1  UNL1       -0.0329
     14 C          12.8100   -4.4742    0.0000 C.2     1  UNL1       -0.0494
     15 C          12.3100   -3.6081    0.0000 C.2     1  UNL1       -0.0600
     16 C          12.8100   -2.7421    0.0000 C.2     1  UNL1       -0.0507
     17 C           4.8100    7.6502    0.0000 C.3     1  UNL1       -0.0076
     18 C           3.8100    7.6502    0.0000 C.3     1  UNL1       -0.0174
     19 C           3.3100    6.7842    0.0000 C.3     1  UNL1        0.0597
     20 C           5.3100    6.7842    0.0000 C.2     1  UNL1       -0.0426
     21 C          13.8100   -2.7421    0.0000 C.3     1  UNL1       -0.0397
     22 C           3.8100    5.9181    0.0000 C.3     1  UNL1       -0.0053
     23 C          12.3100   -1.8761    0.0000 C.2     1  UNL1       -0.0588
     24 C           4.8100    5.9181    0.0000 C.2     1  UNL1       -0.0665
     25 C           4.8100    8.6502    0.0000 C.3     1  UNL1       -0.0557
     26 C           5.6760    8.1502    0.0000 C.3     1  UNL1       -0.0557
     27 C           6.3100    6.7842    0.0000 C.2     1  UNL1       -0.0579
     28 C           5.3100    5.0521    0.0000 C.3     1  UNL1       -0.0431
     29 C          11.3100   -1.8761    0.0000 C.2     1  UNL1       -0.0613
     30 C           6.8100    5.9181    0.0000 C.2     1  UNL1       -0.0586
     31 C          10.8100   -1.0101    0.0000 C.2     1  UNL1       -0.0588
     32 C           7.8100    5.9181    0.0000 C.2     1  UNL1       -0.0504
     33 C          11.3100   -0.1440    0.0000 C.2     1  UNL1       -0.0504
     34 C           8.3100    6.7842    0.0000 C.3     1  UNL1       -0.0397
     35 C           8.3100    5.0521    0.0000 C.2     1  UNL1       -0.0588
     36 C          12.3100   -0.1440    0.0000 C.3     1  UNL1       -0.0397
     37 C          10.8100    0.7220    0.0000 C.2     1  UNL1       -0.0588
     38 C           7.8100    4.1861    0.0000 C.2     1  UNL1       -0.0613
     39 C          11.3100    1.5880    0.0000 C.2     1  UNL1       -0.0615
     40 C           8.3100    3.3201    0.0000 C.2     1  UNL1       -0.0588
     41 C           9.3100    3.3201    0.0000 C.2     1  UNL1       -0.0504
     42 C          10.8100    2.4540    0.0000 C.2     1  UNL1       -0.0615
     43 C           9.8100    2.4540    0.0000 C.2     1  UNL1       -0.0588
     44 C           9.8100    4.1861    0.0000 C.3     1  UNL1       -0.0397
     45 H          13.3881   -7.4228    0.0000 H       1  UNL1        0.0296
     46 H          13.7866   -6.7325    0.0000 H       1  UNL1        0.0296
     47 H          10.8334   -6.7325    0.0000 H       1  UNL1        0.0319
     48 H          11.2319   -7.4228    0.0000 H       1  UNL1        0.0319
     49 H          12.8469   -7.6502    0.0000 H       1  UNL1        0.0594
     50 H          14.1760   -6.4602    0.0000 H       1  UNL1        0.0236
     51 H          14.7960   -5.8402    0.0000 H       1  UNL1        0.0236
     52 H          14.1760   -5.2202    0.0000 H       1  UNL1        0.0236
     53 H          14.3406   -5.6724    0.0000 H       1  UNL1        0.0236
     54 H          14.4170   -4.7989    0.0000 H       1  UNL1        0.0236
     55 H          13.5435   -4.7225    0.0000 H       1  UNL1        0.0236
     56 H          11.2761   -4.6756    0.0000 H       1  UNL1        0.0258
     57 H          10.4027   -4.5992    0.0000 H       1  UNL1        0.0258
     58 H          10.3262   -5.4727    0.0000 H       1  UNL1        0.0258
     59 H          13.3926   -4.2621    0.0000 H       1  UNL1        0.0601
     60 H          11.1994   -4.3664    0.0000 H       1  UNL1        0.2107
     61 H          10.1340   -6.3771    0.0000 H       1  UNL1        0.2103
     62 H          12.8469   -8.6502    0.0000 H       1  UNL1        0.2098
     63 H          11.6900   -3.6081    0.0000 H       1  UNL1        0.0618
     64 H           3.9177    8.2608    0.0000 H       1  UNL1        0.0298
     65 H           3.2274    7.8622    0.0000 H       1  UNL1        0.0298
     66 H           3.0000    6.2472    0.0000 H       1  UNL1        0.0596
     67 H          13.8100   -3.3621    0.0000 H       1  UNL1        0.0278
     68 H          14.4300   -2.7421    0.0000 H       1  UNL1        0.0278
     69 H          13.8100   -2.1221    0.0000 H       1  UNL1        0.0278
     70 H           3.2274    5.7061    0.0000 H       1  UNL1        0.0335
     71 H           3.9177    5.3076    0.0000 H       1  UNL1        0.0335
     72 H          12.6200   -1.3392    0.0000 H       1  UNL1        0.0620
     73 H           5.4300    8.6502    0.0000 H       1  UNL1        0.0238
     74 H           4.8100    9.2702    0.0000 H       1  UNL1        0.0238
     75 H           4.1900    8.6502    0.0000 H       1  UNL1        0.0238
     76 H           5.9860    7.6132    0.0000 H       1  UNL1        0.0238
     77 H           6.2130    8.4602    0.0000 H       1  UNL1        0.0238
     78 H           5.3660    8.6871    0.0000 H       1  UNL1        0.0238
     79 H           6.6200    7.3211    0.0000 H       1  UNL1        0.0621
     80 H           4.7731    4.7421    0.0000 H       1  UNL1        0.0275
     81 H           5.6200    4.5152    0.0000 H       1  UNL1        0.0275
     82 H           5.8469    5.3621    0.0000 H       1  UNL1        0.0275
     83 H           2.0000    7.3211    0.0000 H       1  UNL1        0.2098
     84 H          11.0000   -2.4130    0.0000 H       1  UNL1        0.0618
     85 H           6.5000    5.3812    0.0000 H       1  UNL1        0.0620
     86 H          10.1900   -1.0101    0.0000 H       1  UNL1        0.0620
     87 H           8.8469    6.4742    0.0000 H       1  UNL1        0.0278
     88 H           8.6200    7.3211    0.0000 H       1  UNL1        0.0278
     89 H           7.7731    7.0942    0.0000 H       1  UNL1        0.0278
     90 H           8.9300    5.0521    0.0000 H       1  UNL1        0.0620
     91 H          12.3100   -0.7640    0.0000 H       1  UNL1        0.0278
     92 H          12.9300   -0.1440    0.0000 H       1  UNL1        0.0278
     93 H          12.3100    0.4760    0.0000 H       1  UNL1        0.0278
     94 H          10.1900    0.7220    0.0000 H       1  UNL1        0.0620
     95 H           7.1900    4.1861    0.0000 H       1  UNL1        0.0618
     96 H          11.9300    1.5880    0.0000 H       1  UNL1        0.0618
     97 H           8.0000    2.7831    0.0000 H       1  UNL1        0.0620
     98 H          11.1200    2.9910    0.0000 H       1  UNL1        0.0618
     99 H           9.5000    1.9171    0.0000 H       1  UNL1        0.0620
    100 H          10.3469    3.8761    0.0000 H       1  UNL1        0.0278
    101 H          10.1200    4.7230    0.0000 H       1  UNL1        0.0278
    102 H           9.2731    4.4961    0.0000 H       1  UNL1        0.0278
@<TRIPOS>BOND
     1     1     6    1
     2     1    60    1
     3     2     7    1
     4     2    61    1
     5     3    10    1
     6     3    62    1
     7     4    19    1
     8     4    83    1
     9     5     6    1
    10     5     8    1
    11     5    11    1
    12     5    12    1
    13     6     7    1
    14     6    14    1
    15     7     9    1
    16     7    13    1
    17     8    10    1
    18     8    45    1
    19     8    46    1
    20     9    10    1
    21     9    47    1
    22     9    48    1
    23    10    49    1
    24    11    50    1
    25    11    51    1
    26    11    52    1
    27    12    53    1
    28    12    54    1
    29    12    55    1
    30    13    56    1
    31    13    57    1
    32    13    58    1
    33    14    15    2
    34    14    59    1
    35    15    16    1
    36    15    63    1
    37    16    21    1
    38    16    23    2
    39    17    18    1
    40    17    20    1
    41    17    25    1
    42    17    26    1
    43    18    19    1
    44    18    64    1
    45    18    65    1
    46    19    22    1
    47    19    66    1
    48    20    24    2
    49    20    27    1
    50    21    67    1
    51    21    68    1
    52    21    69    1
    53    22    24    1
    54    22    70    1
    55    22    71    1
    56    23    29    1
    57    23    72    1
    58    24    28    1
    59    25    73    1
    60    25    74    1
    61    25    75    1
    62    26    76    1
    63    26    77    1
    64    26    78    1
    65    27    30    2
    66    27    79    1
    67    28    80    1
    68    28    81    1
    69    28    82    1
    70    29    31    2
    71    29    84    1
    72    30    32    1
    73    30    85    1
    74    31    33    1
    75    31    86    1
    76    32    34    1
    77    32    35    2
    78    33    36    1
    79    33    37    2
    80    34    87    1
    81    34    88    1
    82    34    89    1
    83    35    38    1
    84    35    90    1
    85    36    91    1
    86    36    92    1
    87    36    93    1
    88    37    39    1
    89    37    94    1
    90    38    40    2
    91    38    95    1
    92    39    42    2
    93    39    96    1
    94    40    41    1
    95    40    97    1
    96    41    43    2
    97    41    44    1
    98    42    43    1
    99    42    98    1
   100    43    99    1
   101    44   100    1
   102    44   101    1
   103    44   102    1
