@<TRIPOS>MOLECULE
IMPHY013873
 37 39 0 0 0
SMALL
GASTEIGER

@<TRIPOS>ATOM
      1 O           6.0682   -1.0000    0.0000 O.3     1  UNL1       -0.4791
      2 O           7.8003    1.0000    0.0000 O.3     1  UNL1       -0.4493
      3 O           6.0682    2.0000    0.0000 O.2     1  UNL1       -0.2877
      4 O           4.3198    2.0346    0.0000 O.3     1  UNL1       -0.5058
      5 O           2.5381   -1.0241    0.0000 O.3     1  UNL1       -0.5065
      6 O           6.9343    2.5000    0.0000 O.2     1  UNL1       -0.2511
      7 C           6.9343   -0.5000    0.0000 C.3     1  UNL1        0.1692
      8 C           6.9343    0.5000    0.0000 C.3     1  UNL1        0.2057
      9 C           6.0682    1.0000    0.0000 C.2     1  UNL1        0.2145
     10 C           7.8003   -1.0000    0.0000 C.ar    1  UNL1       -0.0033
     11 C           5.2022    0.5000    0.0000 C.ar    1  UNL1        0.1044
     12 C           5.2022   -0.5000    0.0000 C.ar    1  UNL1        0.1392
     13 C           4.3083    1.0347    0.0000 C.ar    1  UNL1        0.1344
     14 C           4.3083   -1.0347    0.0000 C.ar    1  UNL1        0.0225
     15 C           7.8003   -2.0000    0.0000 C.ar    1  UNL1       -0.0549
     16 C           8.6663   -0.5000    0.0000 C.ar    1  UNL1       -0.0549
     17 C           3.4022    0.5208    0.0000 C.ar    1  UNL1        0.0222
     18 C           3.4022   -0.5208    0.0000 C.ar    1  UNL1        0.1238
     19 C           8.6663   -2.5000    0.0000 C.ar    1  UNL1       -0.0614
     20 C           9.5323   -1.0000    0.0000 C.ar    1  UNL1       -0.0614
     21 C           7.8003    2.0000    0.0000 C.2     1  UNL1        0.3047
     22 C           9.5323   -2.0000    0.0000 C.ar    1  UNL1       -0.0617
     23 C           8.6663    2.5000    0.0000 C.3     1  UNL1        0.0333
     24 H           6.9343   -1.1200    0.0000 H       1  UNL1        0.0827
     25 H           6.9343    1.1200    0.0000 H       1  UNL1        0.0860
     26 H           4.3154   -1.6546    0.0000 H       1  UNL1        0.0691
     27 H           7.2634   -2.3100    0.0000 H       1  UNL1        0.0621
     28 H           8.6663    0.1200    0.0000 H       1  UNL1        0.0621
     29 H           2.8665    0.8329    0.0000 H       1  UNL1        0.0691
     30 H           8.6663   -3.1200    0.0000 H       1  UNL1        0.0618
     31 H          10.0693   -0.6900    0.0000 H       1  UNL1        0.0618
     32 H          10.0693   -2.3100    0.0000 H       1  UNL1        0.0618
     33 H           3.7865    2.3508    0.0000 H       1  UNL1        0.2922
     34 H           8.9763    1.9631    0.0000 H       1  UNL1        0.0342
     35 H           9.2033    2.8100    0.0000 H       1  UNL1        0.0342
     36 H           8.3563    3.0369    0.0000 H       1  UNL1        0.0342
     37 H           2.0000   -0.7162    0.0000 H       1  UNL1        0.2921
@<TRIPOS>BOND
     1     1     7    1
     2     1    12    1
     3     8     2    1
     4     2    21    1
     5     3     9    2
     6     4    13    1
     7     4    33    1
     8     5    18    1
     9     5    37    1
    10     6    21    2
    11     7     8    1
    12     7    10    1
    13     7    24    1
    14     8     9    1
    15     8    25    1
    16     9    11    1
    17    10    15   ar
    18    10    16   ar
    19    11    12   ar
    20    11    13   ar
    21    12    14   ar
    22    13    17   ar
    23    14    18   ar
    24    14    26    1
    25    15    19   ar
    26    15    27    1
    27    16    20   ar
    28    16    28    1
    29    17    18   ar
    30    17    29    1
    31    19    22   ar
    32    19    30    1
    33    20    22   ar
    34    20    31    1
    35    21    23    1
    36    22    32    1
    37    23    34    1
    38    23    35    1
    39    23    36    1
