@<TRIPOS>MOLECULE
IMPHY001890
 55 56 0 0 0
SMALL
GASTEIGER

@<TRIPOS>ATOM
      1 O           6.6962    2.4610    0.0000 O.3     1  UNL1       -0.3740
      2 O           6.3301    0.0950    0.0000 O.3     1  UNL1       -0.4432
      3 O           7.1962   -0.1371    0.0000 O.3     1  UNL1       -0.4785
      4 O           8.6962    0.7290    0.0000 O.2     1  UNL1       -0.2476
      5 O           5.4641    2.5950    0.0000 O.3     1  UNL1       -0.4780
      6 O           4.5981    1.0950    0.0000 O.2     1  UNL1       -0.2467
      7 O           9.7942    5.0950    0.0000 O.3     1  UNL1       -0.5033
      8 O           8.0622    6.0950    0.0000 O.3     1  UNL1       -0.5033
      9 O           4.5981    0.0950    0.0000 O.2     1  UNL1       -0.2456
     10 O           2.8660   -4.9050    0.0000 O.3     1  UNL1       -0.4914
     11 O           4.5981   -5.9050    0.0000 O.3     1  UNL1       -0.4915
     12 C           7.1962    1.5950    0.0000 C.3     1  UNL1        0.2137
     13 C           8.0622    2.0950    0.0000 C.3     1  UNL1        0.0161
     14 C           6.3301    1.0950    0.0000 C.3     1  UNL1        0.2379
     15 C           8.0622    3.0950    0.0000 C.ar    1  UNL1       -0.0403
     16 C           7.6962    0.7290    0.0000 C.2     1  UNL1        0.3415
     17 C           5.4641    1.5950    0.0000 C.2     1  UNL1        0.3495
     18 C           8.9282    3.5950    0.0000 C.ar    1  UNL1       -0.0132
     19 C           7.1962    3.5950    0.0000 C.ar    1  UNL1       -0.0548
     20 C           8.9282    4.5950    0.0000 C.ar    1  UNL1        0.1585
     21 C           7.1962    4.5950    0.0000 C.ar    1  UNL1       -0.0163
     22 C           8.0622    5.0950    0.0000 C.ar    1  UNL1        0.1582
     23 C           5.4641   -0.4050    0.0000 C.2     1  UNL1        0.3328
     24 C           5.4641   -1.4050    0.0000 C.2     1  UNL1        0.0231
     25 C           4.5981   -1.9050    0.0000 C.2     1  UNL1       -0.0477
     26 C           4.5981   -2.9050    0.0000 C.ar    1  UNL1       -0.0211
     27 C           3.7320   -3.4050    0.0000 C.ar    1  UNL1       -0.0091
     28 C           5.4641   -3.4050    0.0000 C.ar    1  UNL1       -0.0509
     29 C           3.7320   -4.4050    0.0000 C.ar    1  UNL1        0.1620
     30 C           4.5981   -4.9050    0.0000 C.ar    1  UNL1        0.1615
     31 C           5.4641   -4.4050    0.0000 C.ar    1  UNL1       -0.0157
     32 C           2.0000   -4.4050    0.0000 C.3     1  UNL1        0.0790
     33 C           5.4641   -6.4050    0.0000 C.3     1  UNL1        0.0790
     34 H           8.2742    1.5124    0.0000 H       1  UNL1        0.0348
     35 H           8.6728    2.2027    0.0000 H       1  UNL1        0.0348
     36 H           6.8671    0.7850    0.0000 H       1  UNL1        0.0889
     37 H           7.0062    2.9980    0.0000 H       1  UNL1        0.2110
     38 H           9.4651    3.2850    0.0000 H       1  UNL1        0.0658
     39 H           6.6592    3.2850    0.0000 H       1  UNL1        0.0621
     40 H           6.6592    4.9050    0.0000 H       1  UNL1        0.0655
     41 H           7.5062   -0.6740    0.0000 H       1  UNL1        0.2951
     42 H           4.9272    2.9050    0.0000 H       1  UNL1        0.2952
     43 H           6.0010   -1.7150    0.0000 H       1  UNL1        0.0689
     44 H           4.0611   -1.5950    0.0000 H       1  UNL1        0.0626
     45 H          10.3312    4.7850    0.0000 H       1  UNL1        0.2923
     46 H           7.5252    6.4050    0.0000 H       1  UNL1        0.2923
     47 H           3.1951   -3.0950    0.0000 H       1  UNL1        0.0661
     48 H           6.0010   -3.0950    0.0000 H       1  UNL1        0.0625
     49 H           6.0010   -4.7150    0.0000 H       1  UNL1        0.0655
     50 H           2.3100   -3.8681    0.0000 H       1  UNL1        0.0660
     51 H           1.4631   -4.0950    0.0000 H       1  UNL1        0.0660
     52 H           1.6900   -4.9419    0.0000 H       1  UNL1        0.0660
     53 H           5.1541   -6.9419    0.0000 H       1  UNL1        0.0660
     54 H           6.0010   -6.7150    0.0000 H       1  UNL1        0.0660
     55 H           5.7741   -5.8681    0.0000 H       1  UNL1        0.0660
@<TRIPOS>BOND
     1    12     1    1
     2     1    37    1
     3    14     2    1
     4     2    23    1
     5     3    16    1
     6     3    41    1
     7     4    16    2
     8     5    17    1
     9     5    42    1
    10     6    17    2
    11     7    20    1
    12     7    45    1
    13     8    22    1
    14     8    46    1
    15     9    23    2
    16    10    29    1
    17    10    32    1
    18    11    30    1
    19    11    33    1
    20    12    13    1
    21    12    14    1
    22    12    16    1
    23    13    15    1
    24    13    34    1
    25    13    35    1
    26    14    17    1
    27    14    36    1
    28    15    18   ar
    29    15    19   ar
    30    18    20   ar
    31    18    38    1
    32    19    21   ar
    33    19    39    1
    34    20    22   ar
    35    21    22   ar
    36    21    40    1
    37    23    24    1
    38    24    25    2
    39    24    43    1
    40    25    26    1
    41    25    44    1
    42    26    27   ar
    43    26    28   ar
    44    27    29   ar
    45    27    47    1
    46    28    31   ar
    47    28    48    1
    48    29    30   ar
    49    30    31   ar
    50    31    49    1
    51    32    50    1
    52    32    51    1
    53    32    52    1
    54    33    53    1
    55    33    54    1
    56    33    55    1
