@<TRIPOS>MOLECULE
IMPHY017413
 32 31 0 0 0
SMALL
GASTEIGER

@<TRIPOS>ATOM
      1 O           8.9282    0.4400    0.0000 O.3     1  UNL1       -0.3880
      2 C           5.4641    0.4400    0.0000 C.3     1  UNL1       -0.0285
      3 C           4.5981   -0.0600    0.0000 C.3     1  UNL1       -0.0308
      4 C           6.3301   -0.0600    0.0000 C.2     1  UNL1       -0.0739
      5 C           7.1962    0.4400    0.0000 C.2     1  UNL1       -0.0572
      6 C           8.0622   -0.0600    0.0000 C.3     1  UNL1        0.0708
      7 C           3.7320    0.4400    0.0000 C.2     1  UNL1       -0.0850
      8 C           6.3301   -1.0600    0.0000 C.3     1  UNL1       -0.0437
      9 C           2.8660   -0.0600    0.0000 C.2     1  UNL1       -0.0796
     10 C           8.0622   -1.0600    0.0000 C.3     1  UNL1       -0.0353
     11 C           2.0000    0.4400    0.0000 C.3     1  UNL1       -0.0440
     12 C           2.8660   -1.0600    0.0000 C.3     1  UNL1       -0.0440
     13 H           5.8626    0.9149    0.0000 H       1  UNL1        0.0313
     14 H           5.0656    0.9149    0.0000 H       1  UNL1        0.0313
     15 H           4.1996   -0.5349    0.0000 H       1  UNL1        0.0310
     16 H           4.9966   -0.5349    0.0000 H       1  UNL1        0.0310
     17 H           7.1962    1.0600    0.0000 H       1  UNL1        0.0597
     18 H           8.0622    0.7900    0.0000 H       1  UNL1        0.0635
     19 H           3.7320    1.0600    0.0000 H       1  UNL1        0.0572
     20 H           5.7101   -1.0600    0.0000 H       1  UNL1        0.0274
     21 H           6.3301   -1.6800    0.0000 H       1  UNL1        0.0274
     22 H           6.9501   -1.0600    0.0000 H       1  UNL1        0.0274
     23 H           7.4422   -1.0600    0.0000 H       1  UNL1        0.0258
     24 H           8.0622   -1.6800    0.0000 H       1  UNL1        0.0258
     25 H           8.6822   -1.0600    0.0000 H       1  UNL1        0.0258
     26 H           2.3100    0.9769    0.0000 H       1  UNL1        0.0274
     27 H           1.4631    0.7500    0.0000 H       1  UNL1        0.0274
     28 H           1.6900   -0.0969    0.0000 H       1  UNL1        0.0274
     29 H           2.2460   -1.0600    0.0000 H       1  UNL1        0.0274
     30 H           2.8660   -1.6800    0.0000 H       1  UNL1        0.0274
     31 H           3.4860   -1.0600    0.0000 H       1  UNL1        0.0274
     32 H           9.4651    0.1300    0.0000 H       1  UNL1        0.2102
@<TRIPOS>BOND
     1     1     6    1
     2     1    32    1
     3     2     3    1
     4     2     4    1
     5     2    13    1
     6     2    14    1
     7     3     7    1
     8     3    15    1
     9     3    16    1
    10     4     5    2
    11     4     8    1
    12     5     6    1
    13     5    17    1
    14     6    10    1
    15     6    18    1
    16     7     9    2
    17     7    19    1
    18     8    20    1
    19     8    21    1
    20     8    22    1
    21     9    11    1
    22     9    12    1
    23    10    23    1
    24    10    24    1
    25    10    25    1
    26    11    26    1
    27    11    27    1
    28    11    28    1
    29    12    29    1
    30    12    30    1
    31    12    31    1
