@<TRIPOS>MOLECULE
IMPHY006976
 14 14 0 0 0
SMALL
GASTEIGER

@<TRIPOS>ATOM
      1 N           2.8660   -1.5000    0.0000 N.ar    1  UNL1       -0.2632
      2 C           2.8660    0.5000    0.0000 C.ar    1  UNL1       -0.0476
      3 C           2.0000    0.0000    0.0000 C.ar    1  UNL1       -0.0407
      4 C           3.7320    0.0000    0.0000 C.ar    1  UNL1       -0.0407
      5 C           2.8660    1.5000    0.0000 C.3     1  UNL1       -0.0396
      6 C           2.0000   -1.0000    0.0000 C.ar    1  UNL1        0.0278
      7 C           3.7320   -1.0000    0.0000 C.ar    1  UNL1        0.0278
      8 H           1.4631    0.3100    0.0000 H       1  UNL1        0.0635
      9 H           4.2690    0.3100    0.0000 H       1  UNL1        0.0635
     10 H           3.4860    1.5000    0.0000 H       1  UNL1        0.0278
     11 H           2.8660    2.1200    0.0000 H       1  UNL1        0.0278
     12 H           2.2460    1.5000    0.0000 H       1  UNL1        0.0278
     13 H           1.4631   -1.3100    0.0000 H       1  UNL1        0.0829
     14 H           4.2690   -1.3100    0.0000 H       1  UNL1        0.0829
@<TRIPOS>BOND
     1     1     6   ar
     2     1     7   ar
     3     2     3   ar
     4     2     4   ar
     5     2     5    1
     6     3     6   ar
     7     3     8    1
     8     4     7   ar
     9     4     9    1
    10     5    10    1
    11     5    11    1
    12     5    12    1
    13     6    13    1
    14     7    14    1
