@<TRIPOS>MOLECULE
IMPHY008567
 62 63 0 0 0
SMALL
GASTEIGER

@<TRIPOS>ATOM
      1 O           5.4641    0.8450    0.0000 O.3     1  UNL1       -0.5055
      2 O           8.9282    0.8450    0.0000 O.3     1  UNL1       -0.4942
      3 O           7.1962   -2.1550    0.0000 O.3     1  UNL1       -0.5062
      4 O           6.3301    2.3450    0.0000 O.2     1  UNL1       -0.2870
      5 O           9.7942    2.3450    0.0000 O.3     1  UNL1       -0.5062
      6 O           9.7942    6.3450    0.0000 O.3     1  UNL1       -0.5067
      7 C           5.4641   -1.1550    0.0000 C.3     1  UNL1       -0.0023
      8 C           4.5981   -3.6550    0.0000 C.3     1  UNL1       -0.0286
      9 C           4.5981   -2.6550    0.0000 C.2     1  UNL1       -0.0759
     10 C           6.3301   -0.6550    0.0000 C.ar    1  UNL1        0.0400
     11 C           5.4641   -2.1550    0.0000 C.2     1  UNL1       -0.0805
     12 C           3.7320   -4.1550    0.0000 C.3     1  UNL1       -0.0308
     13 C           6.3301    0.3450    0.0000 C.ar    1  UNL1        0.1381
     14 C           7.1962    0.8450    0.0000 C.ar    1  UNL1        0.1050
     15 C           7.1962   -1.1550    0.0000 C.ar    1  UNL1        0.1273
     16 C           3.7320   -2.1550    0.0000 C.3     1  UNL1       -0.0438
     17 C           8.0622    0.3450    0.0000 C.ar    1  UNL1        0.1379
     18 C           8.0622   -0.6550    0.0000 C.ar    1  UNL1        0.0228
     19 C           3.7320   -5.1550    0.0000 C.2     1  UNL1       -0.0850
     20 C           2.8660   -5.6550    0.0000 C.2     1  UNL1       -0.0796
     21 C           7.1962    1.8450    0.0000 C.2     1  UNL1        0.1931
     22 C           8.0622    2.3450    0.0000 C.2     1  UNL1       -0.0134
     23 C           2.8660   -6.6550    0.0000 C.3     1  UNL1       -0.0440
     24 C           2.0000   -5.1550    0.0000 C.3     1  UNL1       -0.0440
     25 C           8.0622    3.3450    0.0000 C.2     1  UNL1       -0.0474
     26 C           8.9282    3.8450    0.0000 C.ar    1  UNL1        0.0200
     27 C           9.7942    0.3450    0.0000 C.3     1  UNL1        0.0788
     28 C           9.7942    3.3450    0.0000 C.ar    1  UNL1        0.1242
     29 C           8.9282    4.8450    0.0000 C.ar    1  UNL1       -0.0095
     30 C           9.7942    5.3450    0.0000 C.ar    1  UNL1        0.1176
     31 C          10.6603    3.8450    0.0000 C.ar    1  UNL1       -0.0161
     32 C          10.6603    4.8450    0.0000 C.ar    1  UNL1       -0.0167
     33 H           5.2520   -0.5724    0.0000 H       1  UNL1        0.0358
     34 H           4.8535   -1.2627    0.0000 H       1  UNL1        0.0358
     35 H           4.8101   -4.2376    0.0000 H       1  UNL1        0.0313
     36 H           5.2087   -3.5473    0.0000 H       1  UNL1        0.0313
     37 H           6.0010   -2.4650    0.0000 H       1  UNL1        0.0575
     38 H           3.5200   -3.5724    0.0000 H       1  UNL1        0.0310
     39 H           3.1215   -4.2627    0.0000 H       1  UNL1        0.0310
     40 H           4.0420   -1.6181    0.0000 H       1  UNL1        0.0274
     41 H           3.1951   -1.8450    0.0000 H       1  UNL1        0.0274
     42 H           3.4220   -2.6919    0.0000 H       1  UNL1        0.0274
     43 H           8.5991   -0.9650    0.0000 H       1  UNL1        0.0691
     44 H           4.2690   -5.4650    0.0000 H       1  UNL1        0.0572
     45 H           4.9272    0.5350    0.0000 H       1  UNL1        0.2922
     46 H           8.5991    2.0350    0.0000 H       1  UNL1        0.0656
     47 H           2.2460   -6.6550    0.0000 H       1  UNL1        0.0274
     48 H           2.3100   -4.6181    0.0000 H       1  UNL1        0.0274
     49 H           1.4631   -4.8450    0.0000 H       1  UNL1        0.0274
     50 H           1.6900   -5.6919    0.0000 H       1  UNL1        0.0274
     51 H           2.8660   -7.2750    0.0000 H       1  UNL1        0.0274
     52 H           3.4860   -6.6550    0.0000 H       1  UNL1        0.0274
     53 H           7.7331   -2.4650    0.0000 H       1  UNL1        0.2921
     54 H           7.5252    3.6550    0.0000 H       1  UNL1        0.0626
     55 H           9.4842   -0.1919    0.0000 H       1  UNL1        0.0660
     56 H          10.3312    0.0350    0.0000 H       1  UNL1        0.0660
     57 H          10.1042    0.8819    0.0000 H       1  UNL1        0.0660
     58 H           8.3913    5.1550    0.0000 H       1  UNL1        0.0661
     59 H          11.1972    3.5350    0.0000 H       1  UNL1        0.0655
     60 H          11.1972    5.1550    0.0000 H       1  UNL1        0.0655
     61 H          10.3312    2.0350    0.0000 H       1  UNL1        0.2922
     62 H          10.3312    6.6550    0.0000 H       1  UNL1        0.2921
@<TRIPOS>BOND
     1     1    13    1
     2     1    45    1
     3     2    17    1
     4     2    27    1
     5     3    15    1
     6     3    53    1
     7     4    21    2
     8     5    28    1
     9     5    61    1
    10     6    30    1
    11     6    62    1
    12     7    10    1
    13     7    11    1
    14     7    33    1
    15     7    34    1
    16     8     9    1
    17     8    12    1
    18     8    35    1
    19     8    36    1
    20     9    11    2
    21     9    16    1
    22    10    13   ar
    23    10    15   ar
    24    11    37    1
    25    12    19    1
    26    12    38    1
    27    12    39    1
    28    13    14   ar
    29    14    17   ar
    30    14    21    1
    31    15    18   ar
    32    16    40    1
    33    16    41    1
    34    16    42    1
    35    17    18   ar
    36    18    43    1
    37    19    20    2
    38    19    44    1
    39    20    23    1
    40    20    24    1
    41    21    22    1
    42    22    25    2
    43    22    46    1
    44    23    47    1
    45    23    51    1
    46    23    52    1
    47    24    48    1
    48    24    49    1
    49    24    50    1
    50    25    26    1
    51    25    54    1
    52    26    28   ar
    53    26    29   ar
    54    27    55    1
    55    27    56    1
    56    27    57    1
    57    28    31   ar
    58    29    30   ar
    59    29    58    1
    60    30    32   ar
    61    31    32   ar
    62    31    59    1
    63    32    60    1
