@<TRIPOS>MOLECULE
IMPHY014165
 26 28 0 0 0
SMALL
GASTEIGER

@<TRIPOS>ATOM
      1 O           6.4783    0.8047    0.0000 O.2     1  UNL1       -0.4479
      2 O           4.6660   -2.0000    0.0000 O.2     1  UNL1       -0.2865
      3 O           4.6660    2.0000    0.0000 O.2     1  UNL1       -0.2833
      4 O           8.5619    0.8660    0.0000 O.2     1  UNL1       -0.2891
      5 C           5.5321   -0.5000    0.0000 C.ar    1  UNL1        0.0719
      6 C           5.5321    0.5000    0.0000 C.ar    1  UNL1        0.1865
      7 C           3.8000   -0.5000    0.0000 C.ar    1  UNL1        0.0333
      8 C           3.8000    0.5000    0.0000 C.ar    1  UNL1        0.0362
      9 C           4.6660   -1.0000    0.0000 C.2     1  UNL1        0.1976
     10 C           4.6660    1.0000    0.0000 C.2     1  UNL1        0.2293
     11 C           6.4783   -0.8047    0.0000 C.ar    1  UNL1       -0.0014
     12 C           7.0619   -0.0000    0.0000 C.ar    1  UNL1        0.1713
     13 C           2.9061   -1.0347    0.0000 C.ar    1  UNL1       -0.0502
     14 C           2.9061    1.0347    0.0000 C.ar    1  UNL1       -0.0501
     15 C           2.0000   -0.5208    0.0000 C.ar    1  UNL1       -0.0610
     16 C           2.0000    0.5208    0.0000 C.ar    1  UNL1       -0.0610
     17 C           8.0619   -0.0000    0.0000 C.2     1  UNL1        0.1949
     18 C           8.5619   -0.8660    0.0000 C.3     1  UNL1        0.0017
     19 H           6.6709   -1.3940    0.0000 H       1  UNL1        0.0664
     20 H           2.9132   -1.6546    0.0000 H       1  UNL1        0.0625
     21 H           2.9132    1.6546    0.0000 H       1  UNL1        0.0625
     22 H           1.4643   -0.8329    0.0000 H       1  UNL1        0.0618
     23 H           1.4643    0.8329    0.0000 H       1  UNL1        0.0618
     24 H           8.0250   -1.1760    0.0000 H       1  UNL1        0.0310
     25 H           8.8719   -1.4030    0.0000 H       1  UNL1        0.0310
     26 H           9.0988   -0.5560    0.0000 H       1  UNL1        0.0310
@<TRIPOS>BOND
     1     1     6   ar
     2     1    12   ar
     3     2     9    2
     4     3    10    2
     5     4    17    2
     6     5     6   ar
     7     5     9    1
     8     5    11   ar
     9     6    10    1
    10     7     8   ar
    11     7     9    1
    12     7    13   ar
    13     8    10    1
    14     8    14   ar
    15    11    12   ar
    16    11    19    1
    17    12    17    1
    18    13    15   ar
    19    13    20    1
    20    14    16   ar
    21    14    21    1
    22    15    16   ar
    23    15    22    1
    24    16    23    1
    25    17    18    1
    26    18    24    1
    27    18    25    1
    28    18    26    1
