@<TRIPOS>MOLECULE
IMPHY003959
 101 108 0 0 0
SMALL
GASTEIGER

@<TRIPOS>ATOM
      1 O           6.0380    1.2428    0.0000 O.3     1  UNL1       -0.3578
      2 O          10.1724    2.1722    0.0000 O.3     1  UNL1       -0.3422
      3 O           4.4368    0.0620    0.0000 O.3     1  UNL1       -0.3724
      4 O           8.0438   -2.0988    0.0000 O.3     1  UNL1       -0.3391
      5 O           5.5198    1.0588    0.0000 O.3     1  UNL1       -0.3886
      6 O          10.4650    4.0468    0.0000 O.3     1  UNL1       -0.3198
      7 O           8.0406    3.4728    0.0000 O.3     1  UNL1       -0.3830
      8 O           7.1737   -3.1154    0.0000 O.3     1  UNL1       -0.4573
      9 O           9.1181   -1.3994    0.0000 O.3     1  UNL1       -0.3560
     10 O           3.6339   -3.1290    0.0000 O.3     1  UNL1       -0.4602
     11 O           9.9179    5.7368    0.0000 O.3     1  UNL1       -0.3543
     12 O           2.9999   -2.4394    0.0000 O.3     1  UNL1       -0.4674
     13 O           9.5267   -0.2775    0.0000 O.3     1  UNL1       -0.4642
     14 O           3.0200   -0.7075    0.0000 O.2     1  UNL1       -0.2500
     15 O           7.9456    0.4297    0.0000 O.2     1  UNL1       -0.2447
     16 O           6.3251   -4.6253    0.0000 O.2     1  UNL1       -0.2453
     17 O           4.4941   -4.6324    0.0000 O.2     1  UNL1       -0.2512
     18 C           6.9782    0.9009    0.0000 C.3     1  UNL1        0.1334
     19 C           7.1519   -0.0839    0.0000 C.3     1  UNL1        0.0394
     20 C           6.8046    1.8857    0.0000 C.3     1  UNL1        0.1052
     21 C           7.1519   -1.0839    0.0000 C.3     1  UNL1        0.0462
     22 C           8.2875    2.0158    0.0000 C.3     1  UNL1        0.0269
     23 C           6.2859   -1.5839    0.0000 C.3     1  UNL1        0.0467
     24 C           8.4612    1.0309    0.0000 C.3     1  UNL1        0.0945
     25 C           5.4198   -1.0839    0.0000 C.3     1  UNL1        0.0207
     26 C           6.2859    0.4161    0.0000 C.3     1  UNL1        0.0902
     27 C           9.5440    0.4517    0.0000 C.3     1  UNL1       -0.0153
     28 C           5.4198   -0.0839    0.0000 C.3     1  UNL1        0.0899
     29 C           9.0283    3.3163    0.0000 C.3     1  UNL1        0.1268
     30 C           4.5098   -1.5908    0.0000 C.3     1  UNL1        0.1334
     31 C           8.1237   -1.2931    0.0000 C.3     1  UNL1        0.2720
     32 C           6.3019   -2.6254    0.0000 C.3     1  UNL1        0.1153
     33 C           7.9179   -0.7267    0.0000 C.3     1  UNL1       -0.0538
     34 C           6.6310    2.8705    0.0000 C.3     1  UNL1       -0.0326
     35 C           6.9530   -2.3210    0.0000 C.3     1  UNL1        0.0613
     36 C          10.0160    3.1599    0.0000 C.3     1  UNL1        0.1915
     37 C           4.5018   -2.6324    0.0000 C.3     1  UNL1        0.1246
     38 C           5.4039   -3.1532    0.0000 C.3     1  UNL1        0.0234
     39 C           3.9230   -0.7887    0.0000 C.3     1  UNL1        0.0677
     40 C           8.8753    4.2986    0.0000 C.3     1  UNL1        0.0325
     41 C           9.7614    4.7491    0.0000 C.3     1  UNL1        0.1647
     42 C           3.5099   -1.5792    0.0000 C.2     1  UNL1        0.3193
     43 C           8.5320   -0.3803    0.0000 C.2     1  UNL1        0.3675
     44 C           7.1852   -4.1153    0.0000 C.2     1  UNL1        0.3348
     45 C           3.6300   -4.1290    0.0000 C.2     1  UNL1        0.3042
     46 C          10.8515    6.0952    0.0000 C.3     1  UNL1        0.0394
     47 C           2.0000   -2.4278    0.0000 C.3     1  UNL1        0.0817
     48 C          10.1131   -1.0875    0.0000 C.3     1  UNL1        0.0818
     49 C           8.0570   -4.6053    0.0000 C.2     1  UNL1        0.0293
     50 C           2.7621   -4.6257    0.0000 C.3     1  UNL1        0.0332
     51 C           8.9172   -4.0953    0.0000 C.3     1  UNL1       -0.0333
     52 C           8.0686   -5.6052    0.0000 C.2     1  UNL1       -0.0774
     53 C           8.9403   -6.0952    0.0000 C.3     1  UNL1       -0.0461
     54 H           7.8132   -0.5499    0.0000 H       1  UNL1        0.0373
     55 H           8.1399    2.8528    0.0000 H       1  UNL1        0.0360
     56 H           8.6088    0.1939    0.0000 H       1  UNL1        0.0627
     57 H           5.4198   -1.9339    0.0000 H       1  UNL1        0.0347
     58 H           6.6415    0.9239    0.0000 H       1  UNL1        0.0626
     59 H           9.4810   -0.1651    0.0000 H       1  UNL1        0.0296
     60 H          10.1386    0.6275    0.0000 H       1  UNL1        0.0296
     61 H           5.2609    0.7511    0.0000 H       1  UNL1        0.0625
     62 H           6.3079   -3.2454    0.0000 H       1  UNL1        0.0742
     63 H           7.5194   -1.2017    0.0000 H       1  UNL1        0.0237
     64 H           8.3929   -1.1252    0.0000 H       1  UNL1        0.0237
     65 H           8.3165   -0.2518    0.0000 H       1  UNL1        0.0237
     66 H           7.2415    2.9782    0.0000 H       1  UNL1        0.0258
     67 H           6.5233    3.4811    0.0000 H       1  UNL1        0.0258
     68 H           6.0204    2.7628    0.0000 H       1  UNL1        0.0258
     69 H           6.4268   -2.6489    0.0000 H       1  UNL1        0.0568
     70 H           7.1824   -2.8969    0.0000 H       1  UNL1        0.0568
     71 H          10.8555    3.0269    0.0000 H       1  UNL1        0.0941
     72 H           3.9667   -2.3193    0.0000 H       1  UNL1        0.0747
     73 H           5.0066   -3.6292    0.0000 H       1  UNL1        0.0337
     74 H           5.8049   -3.6261    0.0000 H       1  UNL1        0.0337
     75 H           3.4391   -0.4011    0.0000 H       1  UNL1        0.0572
     76 H           3.4752   -1.2174    0.0000 H       1  UNL1        0.0572
     77 H           8.6540    4.8777    0.0000 H       1  UNL1        0.0344
     78 H           8.2761    4.1393    0.0000 H       1  UNL1        0.0344
     79 H           4.9372    0.8468    0.0000 H       1  UNL1        0.2099
     80 H           9.2600    5.1137    0.0000 H       1  UNL1        0.0911
     81 H           7.8184    4.0516    0.0000 H       1  UNL1        0.2104
     82 H           9.3692   -1.9662    0.0000 H       1  UNL1        0.2133
     83 H          11.0737    5.5164    0.0000 H       1  UNL1        0.0525
     84 H          11.4303    6.3174    0.0000 H       1  UNL1        0.0525
     85 H          10.6293    6.6740    0.0000 H       1  UNL1        0.0525
     86 H           2.0072   -1.8079    0.0000 H       1  UNL1        0.0661
     87 H           1.3800   -2.4207    0.0000 H       1  UNL1        0.0661
     88 H           1.9928   -3.0478    0.0000 H       1  UNL1        0.0661
     89 H           9.6109   -1.4511    0.0000 H       1  UNL1        0.0661
     90 H          10.4767   -1.5898    0.0000 H       1  UNL1        0.0661
     91 H          10.6153   -0.7240    0.0000 H       1  UNL1        0.0661
     92 H           2.4541   -4.0876    0.0000 H       1  UNL1        0.0342
     93 H           2.2239   -4.9336    0.0000 H       1  UNL1        0.0342
     94 H           3.0700   -5.1638    0.0000 H       1  UNL1        0.0342
     95 H           9.2334   -4.6286    0.0000 H       1  UNL1        0.0280
     96 H           9.4505   -3.7791    0.0000 H       1  UNL1        0.0280
     97 H           8.6010   -3.5620    0.0000 H       1  UNL1        0.0280
     98 H           7.5352   -5.9214    0.0000 H       1  UNL1        0.0574
     99 H           8.6365   -6.6356    0.0000 H       1  UNL1        0.0272
    100 H           9.4808   -6.3989    0.0000 H       1  UNL1        0.0272
    101 H           9.2441   -5.5547    0.0000 H       1  UNL1        0.0272
@<TRIPOS>BOND
     1    18     1    1
     2     1    20    1
     3     2    24    1
     4     2    36    1
     5     3    28    1
     6     3    39    1
     7     4    31    1
     8     4    35    1
     9    26     5    1
    10     5    79    1
    11     6    36    1
    12     6    41    1
    13    29     7    1
    14     7    81    1
    15    32     8    1
    16     8    44    1
    17    31     9    1
    18     9    82    1
    19    37    10    1
    20    10    45    1
    21    41    11    1
    22    11    46    1
    23    12    42    1
    24    12    47    1
    25    13    43    1
    26    13    48    1
    27    14    42    2
    28    15    43    2
    29    16    44    2
    30    17    45    2
    31    18    19    1
    32    18    20    1
    33    18    24    1
    34    19    21    1
    35    19    26    1
    36    19    33    1
    37    20    22    1
    38    20    34    1
    39    21    23    1
    40    21    31    1
    41    21    54    1
    42    22    27    1
    43    22    29    1
    44    22    55    1
    45    23    25    1
    46    23    32    1
    47    23    35    1
    48    24    27    1
    49    24    56    1
    50    25    28    1
    51    25    30    1
    52    25    57    1
    53    26    28    1
    54    26    58    1
    55    27    59    1
    56    27    60    1
    57    28    61    1
    58    29    36    1
    59    29    40    1
    60    30    37    1
    61    30    39    1
    62    30    42    1
    63    31    43    1
    64    32    38    1
    65    32    62    1
    66    33    63    1
    67    33    64    1
    68    33    65    1
    69    34    66    1
    70    34    67    1
    71    34    68    1
    72    35    69    1
    73    35    70    1
    74    36    71    1
    75    37    38    1
    76    37    72    1
    77    38    73    1
    78    38    74    1
    79    39    75    1
    80    39    76    1
    81    40    41    1
    82    40    77    1
    83    40    78    1
    84    41    80    1
    85    44    49    1
    86    45    50    1
    87    46    83    1
    88    46    84    1
    89    46    85    1
    90    47    86    1
    91    47    87    1
    92    47    88    1
    93    48    89    1
    94    48    90    1
    95    48    91    1
    96    49    51    1
    97    49    52    2
    98    50    92    1
    99    50    93    1
   100    50    94    1
   101    51    95    1
   102    51    96    1
   103    51    97    1
   104    52    53    1
   105    52    98    1
   106    53    99    1
   107    53   100    1
   108    53   101    1
