@<TRIPOS>MOLECULE
IMPHY003505
 43 45 0 0 0
SMALL
GASTEIGER

@<TRIPOS>ATOM
      1 O           4.8158    1.7663    0.0000 O.3     1  UNL1       -0.3671
      2 O           4.9103   -2.6578    0.0000 O.3     1  UNL1       -0.3914
      3 C           4.5725   -0.9139    0.0000 C.3     1  UNL1        0.0170
      4 C           3.7435   -0.3547    0.0000 C.3     1  UNL1       -0.0302
      5 C           5.7936   -0.0482    0.0000 C.3     1  UNL1        0.0729
      6 C           6.0524    0.9177    0.0000 C.3     1  UNL1       -0.0120
      7 C           4.0191    0.6066    0.0000 C.3     1  UNL1       -0.0441
      8 C           2.9617   -0.9687    0.0000 C.3     1  UNL1       -0.0383
      9 C           4.2960   -1.8687    0.0000 C.3     1  UNL1        0.0612
     10 C           5.6818    2.2663    0.0000 C.3     1  UNL1        0.0675
     11 C           7.1925   -0.5570    0.0000 C.3     1  UNL1       -0.0233
     12 C           3.3025   -1.9026    0.0000 C.3     1  UNL1       -0.0236
     13 C           7.4513    0.4089    0.0000 C.3     1  UNL1       -0.0450
     14 C           5.5347   -1.0142    0.0000 C.3     1  UNL1       -0.0354
     15 C           2.0000   -0.6948    0.0000 C.3     1  UNL1       -0.0621
     16 C           6.3889    2.9734    0.0000 C.3     1  UNL1       -0.0358
     17 C           5.4230    3.2323    0.0000 C.3     1  UNL1       -0.0358
     18 H           5.2653   -1.4064    0.0000 H       1  UNL1        0.0356
     19 H           3.0382    0.1197    0.0000 H       1  UNL1        0.0308
     20 H           5.9688    0.0718    0.0000 H       1  UNL1        0.0328
     21 H           4.0141    1.2266    0.0000 H       1  UNL1        0.0272
     22 H           3.4048    0.6904    0.0000 H       1  UNL1        0.0272
     23 H           2.3828   -1.5911    0.0000 H       1  UNL1        0.0302
     24 H           3.9358   -2.6386    0.0000 H       1  UNL1        0.0597
     25 H           6.9976   -1.1456    0.0000 H       1  UNL1        0.0293
     26 H           7.7865   -0.7348    0.0000 H       1  UNL1        0.0293
     27 H           2.7010   -2.0527    0.0000 H       1  UNL1        0.0293
     28 H           3.3886   -2.5166    0.0000 H       1  UNL1        0.0293
     29 H           8.0453    0.2311    0.0000 H       1  UNL1        0.0270
     30 H           7.6462    0.9974    0.0000 H       1  UNL1        0.0270
     31 H           4.9359   -0.8537    0.0000 H       1  UNL1        0.0257
     32 H           5.3743   -1.6130    0.0000 H       1  UNL1        0.0257
     33 H           6.1336   -1.1746    0.0000 H       1  UNL1        0.0257
     34 H           2.1699   -0.0985    0.0000 H       1  UNL1        0.0233
     35 H           1.4037   -0.5249    0.0000 H       1  UNL1        0.0233
     36 H           1.8301   -1.2910    0.0000 H       1  UNL1        0.0233
     37 H           6.8273    2.5350    0.0000 H       1  UNL1        0.0257
     38 H           6.8273    3.4118    0.0000 H       1  UNL1        0.0257
     39 H           5.9505    3.4118    0.0000 H       1  UNL1        0.0257
     40 H           6.0218    3.3927    0.0000 H       1  UNL1        0.0257
     41 H           5.2625    3.8311    0.0000 H       1  UNL1        0.0257
     42 H           4.8241    3.0718    0.0000 H       1  UNL1        0.0257
     43 H           4.6771   -3.2323    0.0000 H       1  UNL1        0.2098
@<TRIPOS>BOND
     1     1     5    1
     2     1    10    1
     3     2     9    1
     4     2    43    1
     5     3     4    1
     6     3     5    1
     7     3     9    1
     8     3    18    1
     9     4     7    1
    10     4     8    1
    11     4    19    1
    12     5    11    1
    13     5    14    1
    14     6     7    1
    15     6    10    1
    16     6    13    1
    17     6    20    1
    18     7    21    1
    19     7    22    1
    20     8    12    1
    21     8    15    1
    22     8    23    1
    23     9    12    1
    24     9    24    1
    25    10    16    1
    26    10    17    1
    27    11    13    1
    28    11    25    1
    29    11    26    1
    30    12    27    1
    31    12    28    1
    32    13    29    1
    33    13    30    1
    34    14    31    1
    35    14    32    1
    36    14    33    1
    37    15    34    1
    38    15    35    1
    39    15    36    1
    40    16    37    1
    41    16    38    1
    42    16    39    1
    43    17    40    1
    44    17    41    1
    45    17    42    1
