@<TRIPOS>MOLECULE
IMPHY001546
 39 39 0 0 0
SMALL
GASTEIGER

@<TRIPOS>ATOM
      1 O           5.5000   -1.2990    0.0000 O.3     1  UNL1       -0.4646
      2 O           4.0000   -0.4330    0.0000 O.2     1  UNL1       -0.2509
      3 C           2.0000    1.2990    0.0000 C.3     1  UNL1       -0.0531
      4 C           2.5000    0.4330    0.0000 C.3     1  UNL1       -0.0531
      5 C           2.5000    2.1651    0.0000 C.3     1  UNL1       -0.0531
      6 C           2.0000   -0.4330    0.0000 C.3     1  UNL1       -0.0531
      7 C           3.5000    2.1651    0.0000 C.3     1  UNL1       -0.0530
      8 C           2.5000   -1.2990    0.0000 C.3     1  UNL1       -0.0530
      9 C           4.0000    1.2990    0.0000 C.3     1  UNL1       -0.0526
     10 C           3.5000   -1.2990    0.0000 C.3     1  UNL1       -0.0500
     11 C           5.0000    1.2990    0.0000 C.3     1  UNL1       -0.0430
     12 C           4.0000   -2.1651    0.0000 C.3     1  UNL1       -0.0185
     13 C           5.5000    0.4330    0.0000 C.3     1  UNL1        0.0449
     14 C           5.0000   -2.1651    0.0000 C.3     1  UNL1        0.0925
     15 C           5.0000   -0.4330    0.0000 C.2     1  UNL1        0.3071
     16 H           1.5250    1.6976    0.0000 H       1  UNL1        0.0265
     17 H           1.5250    0.9005    0.0000 H       1  UNL1        0.0265
     18 H           2.9750    0.0345    0.0000 H       1  UNL1        0.0265
     19 H           2.9750    0.8315    0.0000 H       1  UNL1        0.0265
     20 H           2.6077    2.7756    0.0000 H       1  UNL1        0.0265
     21 H           1.9174    2.3771    0.0000 H       1  UNL1        0.0265
     22 H           1.5250   -0.0345    0.0000 H       1  UNL1        0.0265
     23 H           1.5250   -0.8315    0.0000 H       1  UNL1        0.0265
     24 H           4.0826    2.3771    0.0000 H       1  UNL1        0.0265
     25 H           3.3923    2.7756    0.0000 H       1  UNL1        0.0265
     26 H           1.9174   -1.5111    0.0000 H       1  UNL1        0.0265
     27 H           2.6077   -1.9096    0.0000 H       1  UNL1        0.0265
     28 H           3.4174    1.0870    0.0000 H       1  UNL1        0.0265
     29 H           4.1077    0.6885    0.0000 H       1  UNL1        0.0265
     30 H           4.0826   -1.0870    0.0000 H       1  UNL1        0.0266
     31 H           3.3923   -0.6885    0.0000 H       1  UNL1        0.0266
     32 H           5.5826    1.5111    0.0000 H       1  UNL1        0.0270
     33 H           4.8923    1.9096    0.0000 H       1  UNL1        0.0270
     34 H           3.4174   -2.3771    0.0000 H       1  UNL1        0.0298
     35 H           4.1077   -2.7756    0.0000 H       1  UNL1        0.0298
     36 H           5.9750    0.0345    0.0000 H       1  UNL1        0.0377
     37 H           5.9750    0.8315    0.0000 H       1  UNL1        0.0377
     38 H           4.8923   -2.7756    0.0000 H       1  UNL1        0.0697
     39 H           5.5826   -2.3771    0.0000 H       1  UNL1        0.0697
@<TRIPOS>BOND
     1     1    14    1
     2     1    15    1
     3     2    15    2
     4     3     4    1
     5     3     5    1
     6     3    16    1
     7     3    17    1
     8     4     6    1
     9     4    18    1
    10     4    19    1
    11     5     7    1
    12     5    20    1
    13     5    21    1
    14     6     8    1
    15     6    22    1
    16     6    23    1
    17     7     9    1
    18     7    24    1
    19     7    25    1
    20     8    10    1
    21     8    26    1
    22     8    27    1
    23     9    11    1
    24     9    28    1
    25     9    29    1
    26    10    12    1
    27    10    30    1
    28    10    31    1
    29    11    13    1
    30    11    32    1
    31    11    33    1
    32    12    14    1
    33    12    34    1
    34    12    35    1
    35    13    15    1
    36    13    36    1
    37    13    37    1
    38    14    38    1
    39    14    39    1
