@<TRIPOS>MOLECULE
IMPHY010843
 41 44 0 0 0
SMALL
GASTEIGER

@<TRIPOS>ATOM
      1 O           2.0000   -0.2458    0.0000 O.3     1  UNL1       -0.3650
      2 O           5.6646    2.6866    0.0000 O.3     1  UNL1       -0.3649
      3 O           6.4014   -0.9128    0.0000 O.3     1  UNL1       -0.4607
      4 O           6.4963   -2.6866    0.0000 O.2     1  UNL1       -0.2505
      5 C           2.7076    0.4614    0.0000 C.3     1  UNL1        0.0933
      6 C           5.6644    1.6862    0.0000 C.3     1  UNL1        0.0966
      7 C           2.9664   -0.5045    0.0000 C.3     1  UNL1        0.0885
      8 C           4.7984    2.1862    0.0000 C.3     1  UNL1        0.0883
      9 C           4.7984   -0.7457    0.0000 C.3     1  UNL1        0.0113
     10 C           3.9324   -0.2457    0.0000 C.3     1  UNL1       -0.0169
     11 C           5.6644    0.6862    0.0000 C.3     1  UNL1        0.0160
     12 C           5.6644   -0.2457    0.0000 C.3     1  UNL1        0.1094
     13 C           3.6735    0.7202    0.0000 C.3     1  UNL1       -0.0191
     14 C           3.9324    1.6862    0.0000 C.3     1  UNL1       -0.0212
     15 C           5.0076   -1.7175    0.0000 C.3     1  UNL1        0.0599
     16 C           2.4488    1.4273    0.0000 C.3     1  UNL1       -0.0334
     17 C           6.5304    1.1862    0.0000 C.3     1  UNL1       -0.0332
     18 C           5.9963   -1.8206    0.0000 C.2     1  UNL1        0.3106
     19 C           4.3397   -2.4618    0.0000 C.3     1  UNL1       -0.0519
     20 H           2.9665   -1.3545    0.0000 H       1  UNL1        0.0625
     21 H           4.3733    2.9222    0.0000 H       1  UNL1        0.0625
     22 H           4.1114   -1.2462    0.0000 H       1  UNL1        0.0345
     23 H           4.3708    0.1927    0.0000 H       1  UNL1        0.0295
     24 H           3.6224    0.2912    0.0000 H       1  UNL1        0.0295
     25 H           6.2013    0.3762    0.0000 H       1  UNL1        0.0330
     26 H           5.0444    0.6862    0.0000 H       1  UNL1        0.0330
     27 H           6.4414    0.0990    0.0000 H       1  UNL1        0.0738
     28 H           3.7276    0.1026    0.0000 H       1  UNL1        0.0294
     29 H           4.2912    0.6662    0.0000 H       1  UNL1        0.0294
     30 H           3.7719    2.2850    0.0000 H       1  UNL1        0.0292
     31 H           3.3124    1.6862    0.0000 H       1  UNL1        0.0292
     32 H           5.2305   -2.2960    0.0000 H       1  UNL1        0.0415
     33 H           3.0477    1.5878    0.0000 H       1  UNL1        0.0258
     34 H           2.2883    2.0262    0.0000 H       1  UNL1        0.0258
     35 H           1.8499    1.2669    0.0000 H       1  UNL1        0.0258
     36 H           6.2204    0.6492    0.0000 H       1  UNL1        0.0258
     37 H           7.0674    0.8762    0.0000 H       1  UNL1        0.0258
     38 H           6.8404    1.7231    0.0000 H       1  UNL1        0.0258
     39 H           3.8783   -2.0478    0.0000 H       1  UNL1        0.0238
     40 H           3.9257   -2.9233    0.0000 H       1  UNL1        0.0238
     41 H           4.8012   -2.8759    0.0000 H       1  UNL1        0.0238
@<TRIPOS>BOND
     1     1     5    1
     2     1     7    1
     3     2     6    1
     4     2     8    1
     5     3    12    1
     6     3    18    1
     7     4    18    2
     8     5     7    1
     9     5    13    1
    10     5    16    1
    11     6     8    1
    12     6    11    1
    13     6    17    1
    14     7    10    1
    15     7    20    1
    16     8    14    1
    17     8    21    1
    18     9    10    1
    19     9    12    1
    20     9    15    1
    21     9    22    1
    22    10    23    1
    23    10    24    1
    24    11    12    1
    25    11    25    1
    26    11    26    1
    27    12    27    1
    28    13    14    1
    29    13    28    1
    30    13    29    1
    31    14    30    1
    32    14    31    1
    33    15    18    1
    34    15    19    1
    35    15    32    1
    36    16    33    1
    37    16    34    1
    38    16    35    1
    39    17    36    1
    40    17    37    1
    41    17    38    1
    42    19    39    1
    43    19    40    1
    44    19    41    1
