@<TRIPOS>MOLECULE
IMPHY016917
 179 188 0 0 0
SMALL
GASTEIGER

@<TRIPOS>ATOM
      1 O          14.3523    2.6557    0.0000 O.3     1  UNL1       -0.3450
      2 O          12.8233    3.8876    0.0000 O.3     1  UNL1       -0.3642
      3 O          12.9292   -5.5884    0.0000 O.3     1  UNL1       -0.3451
      4 O          11.1972   -5.5884    0.0000 O.3     1  UNL1       -0.3405
      5 O          16.9869    5.7550    0.0000 O.3     1  UNL1       -0.3484
      6 O          12.9292   -7.5884    0.0000 O.3     1  UNL1       -0.3378
      7 O          11.1972   -8.5884    0.0000 O.3     1  UNL1       -0.3864
      8 O           9.4651   -7.5884    0.0000 O.3     1  UNL1       -0.3401
      9 O          18.4843    6.6255    0.0000 O.3     1  UNL1       -0.3405
     10 O          13.7953   -6.0884    0.0000 O.3     1  UNL1       -0.3431
     11 O           9.4651   -4.5884    0.0000 O.3     1  UNL1       -0.3924
     12 O          17.9920    4.0260    0.0000 O.3     1  UNL1       -0.3841
     13 O           8.5991   -6.0884    0.0000 O.3     1  UNL1       -0.3405
     14 O          14.6613   -8.5884    0.0000 O.3     1  UNL1       -0.3841
     15 O          19.9920    4.0319    0.0000 O.3     1  UNL1       -0.3864
     16 O          20.9868    5.7670    0.0000 O.3     1  UNL1       -0.3865
     17 O          16.3933   -7.5884    0.0000 O.3     1  UNL1       -0.3864
     18 O           7.7331   -8.5884    0.0000 O.3     1  UNL1       -0.3841
     19 O          16.3933   -5.5884    0.0000 O.3     1  UNL1       -0.3866
     20 O           6.0010   -7.5884    0.0000 O.3     1  UNL1       -0.3401
     21 O          19.4791    8.3605    0.0000 O.3     1  UNL1       -0.3924
     22 O           6.0010   -5.5884    0.0000 O.3     1  UNL1       -0.3865
     23 O           6.8671   -4.0884    0.0000 O.3     1  UNL1       -0.3924
     24 O           5.1350   -6.0884    0.0000 O.3     1  UNL1       -0.3405
     25 O           4.2690   -8.5884    0.0000 O.3     1  UNL1       -0.3841
     26 O           2.5369   -7.5884    0.0000 O.3     1  UNL1       -0.3864
     27 O           2.5369   -5.5884    0.0000 O.3     1  UNL1       -0.3865
     28 O           5.1350   -4.0884    0.0000 O.3     1  UNL1       -0.3924
     29 C          12.9585    0.6085    0.0000 C.3     1  UNL1       -0.0233
     30 C          13.8264    0.1118    0.0000 C.3     1  UNL1       -0.0295
     31 C          13.1640    1.5811    0.0000 C.3     1  UNL1       -0.0015
     32 C          13.8303   -0.8882    0.0000 C.3     1  UNL1       -0.0306
     33 C          14.1523    1.6880    0.0000 C.3     1  UNL1        0.0660
     34 C          12.9662   -1.3915    0.0000 C.3     1  UNL1       -0.0285
     35 C          14.5609    0.7817    0.0000 C.3     1  UNL1       -0.0226
     36 C          12.0944    0.1051    0.0000 C.3     1  UNL1       -0.0467
     37 C          12.7617    2.4837    0.0000 C.3     1  UNL1        0.0158
     38 C          12.0983   -0.8949    0.0000 C.3     1  UNL1       -0.0486
     39 C          12.9542   -2.4331    0.0000 C.3     1  UNL1       -0.0078
     40 C          13.4946    3.1465    0.0000 C.3     1  UNL1        0.1704
     41 C          12.0906    1.1051    0.0000 C.3     1  UNL1       -0.0590
     42 C          14.7422   -1.3915    0.0000 C.3     1  UNL1       -0.0311
     43 C          13.8542   -2.9574    0.0000 C.2     1  UNL1       -0.0648
     44 C          12.0043   -2.9574    0.0000 C.3     1  UNL1       -0.0413
     45 C          14.7543   -2.4331    0.0000 C.2     1  UNL1       -0.0839
     46 C          11.7833    2.6904    0.0000 C.3     1  UNL1       -0.0572
     47 C          12.0901   -1.9297    0.0000 C.3     1  UNL1       -0.0556
     48 C          13.9920    4.0140    0.0000 C.3     1  UNL1        0.0018
     49 C          13.8668   -4.0423    0.0000 C.3     1  UNL1       -0.0047
     50 C          11.9917   -4.0423    0.0000 C.3     1  UNL1       -0.0254
     51 C          12.9292   -4.5884    0.0000 C.3     1  UNL1        0.0655
     52 C          14.9920    4.0170    0.0000 C.3     1  UNL1       -0.0435
     53 C          15.4894    4.8845    0.0000 C.3     1  UNL1       -0.0201
     54 C          12.0632   -6.0884    0.0000 C.3     1  UNL1        0.1886
     55 C          16.4894    4.8875    0.0000 C.3     1  UNL1        0.0533
     56 C          14.9869    5.7490    0.0000 C.3     1  UNL1       -0.0603
     57 C          12.0632   -7.0884    0.0000 C.3     1  UNL1        0.1406
     58 C          11.1972   -7.5884    0.0000 C.3     1  UNL1        0.1148
     59 C          10.3312   -6.0884    0.0000 C.3     1  UNL1        0.1134
     60 C          10.3312   -7.0884    0.0000 C.3     1  UNL1        0.1184
     61 C          17.9868    5.7580    0.0000 C.3     1  UNL1        0.1879
     62 C           9.4651   -5.5884    0.0000 C.3     1  UNL1        0.0730
     63 C          13.7953   -7.0884    0.0000 C.3     1  UNL1        0.1884
     64 C          18.4894    4.8935    0.0000 C.3     1  UNL1        0.1341
     65 C          14.6613   -7.5884    0.0000 C.3     1  UNL1        0.1341
     66 C           8.5991   -7.0884    0.0000 C.3     1  UNL1        0.1884
     67 C          19.4894    4.8965    0.0000 C.3     1  UNL1        0.1141
     68 C          19.4843    6.6285    0.0000 C.3     1  UNL1        0.1130
     69 C          19.9868    5.7640    0.0000 C.3     1  UNL1        0.1119
     70 C          15.5273   -7.0884    0.0000 C.3     1  UNL1        0.1140
     71 C          14.6613   -5.5884    0.0000 C.3     1  UNL1        0.0873
     72 C           7.7331   -7.5884    0.0000 C.3     1  UNL1        0.1345
     73 C          15.5273   -6.0884    0.0000 C.3     1  UNL1        0.1095
     74 C          19.9817    7.4960    0.0000 C.3     1  UNL1        0.0730
     75 C           6.8671   -7.0884    0.0000 C.3     1  UNL1        0.1206
     76 C           7.7331   -5.5884    0.0000 C.3     1  UNL1        0.1130
     77 C           6.8671   -6.0884    0.0000 C.3     1  UNL1        0.1123
     78 C          14.6613   -4.5884    0.0000 C.3     1  UNL1       -0.0361
     79 C           7.7331   -4.5884    0.0000 C.3     1  UNL1        0.0730
     80 C           5.1350   -7.0884    0.0000 C.3     1  UNL1        0.1884
     81 C           4.2690   -7.5884    0.0000 C.3     1  UNL1        0.1341
     82 C           3.4030   -7.0884    0.0000 C.3     1  UNL1        0.1141
     83 C           4.2690   -5.5884    0.0000 C.3     1  UNL1        0.1130
     84 C           3.4030   -6.0884    0.0000 C.3     1  UNL1        0.1119
     85 C           4.2690   -4.5884    0.0000 C.3     1  UNL1        0.0730
     86 H          14.3941   -0.1374    0.0000 H       1  UNL1        0.0310
     87 H          12.5474    1.5158    0.0000 H       1  UNL1        0.0335
     88 H          14.3636   -0.5720    0.0000 H       1  UNL1        0.0310
     89 H          14.7685    1.7559    0.0000 H       1  UNL1        0.0600
     90 H          13.5019   -1.7036    0.0000 H       1  UNL1        0.0312
     91 H          14.9283    0.2823    0.0000 H       1  UNL1        0.0293
     92 H          15.0962    1.0946    0.0000 H       1  UNL1        0.0293
     93 H          11.8801    0.6869    0.0000 H       1  UNL1        0.0271
     94 H          11.4842   -0.0049    0.0000 H       1  UNL1        0.0271
     95 H          12.3719    2.0015    0.0000 H       1  UNL1        0.0354
     96 H          11.4873   -0.7895    0.0000 H       1  UNL1        0.0268
     97 H          11.8885   -1.4783    0.0000 H       1  UNL1        0.0268
     98 H          12.3985    1.6433    0.0000 H       1  UNL1        0.0235
     99 H          11.5524    1.4131    0.0000 H       1  UNL1        0.0235
    100 H          11.7826    0.5670    0.0000 H       1  UNL1        0.0235
    101 H          15.3543   -1.4905    0.0000 H       1  UNL1        0.0310
    102 H          14.9445   -0.8054    0.0000 H       1  UNL1        0.0310
    103 H          11.8020   -2.3713    0.0000 H       1  UNL1        0.0274
    104 H          11.3922   -3.0564    0.0000 H       1  UNL1        0.0274
    105 H          15.2936   -2.7389    0.0000 H       1  UNL1        0.0572
    106 H          11.9114    3.2970    0.0000 H       1  UNL1        0.0234
    107 H          11.1766    2.8185    0.0000 H       1  UNL1        0.0234
    108 H          11.6551    2.0838    0.0000 H       1  UNL1        0.0234
    109 H          12.4021   -1.3940    0.0000 H       1  UNL1        0.0238
    110 H          11.5543   -1.6177    0.0000 H       1  UNL1        0.0238
    111 H          11.7780   -2.4655    0.0000 H       1  UNL1        0.0238
    112 H          14.0979    4.6249    0.0000 H       1  UNL1        0.0317
    113 H          13.4088    4.2243    0.0000 H       1  UNL1        0.0317
    114 H          14.0826   -4.6235    0.0000 H       1  UNL1        0.0335
    115 H          14.4764   -3.9291    0.0000 H       1  UNL1        0.0335
    116 H          11.3821   -3.9291    0.0000 H       1  UNL1        0.0290
    117 H          11.7759   -4.6235    0.0000 H       1  UNL1        0.0290
    118 H          12.3917   -4.8974    0.0000 H       1  UNL1        0.0600
    119 H          13.0131    4.4778    0.0000 H       1  UNL1        0.2128
    120 H          14.8862    3.4061    0.0000 H       1  UNL1        0.0270
    121 H          15.5753    3.8067    0.0000 H       1  UNL1        0.0270
    122 H          14.8694    4.8826    0.0000 H       1  UNL1        0.0320
    123 H          12.6002   -6.3984    0.0000 H       1  UNL1        0.0938
    124 H          16.3836    4.2766    0.0000 H       1  UNL1        0.0563
    125 H          17.0727    4.6772    0.0000 H       1  UNL1        0.0563
    126 H          15.5229    6.0606    0.0000 H       1  UNL1        0.0233
    127 H          14.6753    6.2850    0.0000 H       1  UNL1        0.0233
    128 H          14.4509    5.4374    0.0000 H       1  UNL1        0.0233
    129 H          12.0632   -7.7084    0.0000 H       1  UNL1        0.0675
    130 H          10.6603   -7.8984    0.0000 H       1  UNL1        0.0648
    131 H          10.3312   -5.4684    0.0000 H       1  UNL1        0.0647
    132 H           9.7942   -6.7784    0.0000 H       1  UNL1        0.0651
    133 H          17.6752    6.2940    0.0000 H       1  UNL1        0.0937
    134 H           8.8546   -5.4807    0.0000 H       1  UNL1        0.0584
    135 H           9.2531   -6.1710    0.0000 H       1  UNL1        0.0584
    136 H          13.7953   -7.7084    0.0000 H       1  UNL1        0.0938
    137 H          10.6603   -8.8984    0.0000 H       1  UNL1        0.2100
    138 H          17.8694    4.8916    0.0000 H       1  UNL1        0.0671
    139 H          15.1982   -7.8984    0.0000 H       1  UNL1        0.0671
    140 H           8.5991   -7.7084    0.0000 H       1  UNL1        0.0938
    141 H          19.1810    4.3586    0.0000 H       1  UNL1        0.0648
    142 H          19.1726    7.1645    0.0000 H       1  UNL1        0.0647
    143 H          20.2984    5.2280    0.0000 H       1  UNL1        0.0647
    144 H           8.9282   -4.2784    0.0000 H       1  UNL1        0.2095
    145 H          16.0643   -6.7784    0.0000 H       1  UNL1        0.0648
    146 H          14.1244   -5.2784    0.0000 H       1  UNL1        0.0621
    147 H           7.1962   -7.8984    0.0000 H       1  UNL1        0.0671
    148 H          15.5273   -5.4684    0.0000 H       1  UNL1        0.0646
    149 H          18.3036    3.4899    0.0000 H       1  UNL1        0.2101
    150 H          20.4578    7.0989    0.0000 H       1  UNL1        0.0584
    151 H          20.4554    7.8960    0.0000 H       1  UNL1        0.0584
    152 H           6.3301   -6.7784    0.0000 H       1  UNL1        0.0651
    153 H          15.1982   -8.8984    0.0000 H       1  UNL1        0.2101
    154 H           8.2700   -5.2784    0.0000 H       1  UNL1        0.0647
    155 H          20.6120    4.0338    0.0000 H       1  UNL1        0.2100
    156 H           6.8671   -5.4684    0.0000 H       1  UNL1        0.0647
    157 H          15.2813   -4.5884    0.0000 H       1  UNL1        0.0255
    158 H          14.6613   -3.9684    0.0000 H       1  UNL1        0.0255
    159 H          14.0413   -4.5884    0.0000 H       1  UNL1        0.0255
    160 H          21.2952    6.3048    0.0000 H       1  UNL1        0.2100
    161 H          16.9303   -7.2784    0.0000 H       1  UNL1        0.2100
    162 H           7.1962   -8.8984    0.0000 H       1  UNL1        0.2101
    163 H          16.9303   -5.8984    0.0000 H       1  UNL1        0.2100
    164 H           8.3437   -4.6961    0.0000 H       1  UNL1        0.0584
    165 H           7.9451   -4.0058    0.0000 H       1  UNL1        0.0584
    166 H          19.7875    8.8984    0.0000 H       1  UNL1        0.2095
    167 H           6.0010   -4.9684    0.0000 H       1  UNL1        0.2100
    168 H           5.1350   -7.7084    0.0000 H       1  UNL1        0.0938
    169 H           3.7320   -7.8984    0.0000 H       1  UNL1        0.0671
    170 H           6.8671   -3.4684    0.0000 H       1  UNL1        0.2095
    171 H           2.8660   -6.7784    0.0000 H       1  UNL1        0.0648
    172 H           4.8059   -5.2784    0.0000 H       1  UNL1        0.0647
    173 H           3.4030   -5.4684    0.0000 H       1  UNL1        0.0647
    174 H           3.7320   -8.8984    0.0000 H       1  UNL1        0.2101
    175 H           4.0569   -4.0058    0.0000 H       1  UNL1        0.0584
    176 H           3.6584   -4.6961    0.0000 H       1  UNL1        0.0584
    177 H           2.0000   -7.2784    0.0000 H       1  UNL1        0.2100
    178 H           2.5369   -4.9684    0.0000 H       1  UNL1        0.2100
    179 H           5.1350   -3.4684    0.0000 H       1  UNL1        0.2095
@<TRIPOS>BOND
     1     1    33    1
     2     1    40    1
     3     2    40    1
     4     2   119    1
     5     3    51    1
     6     3    54    1
     7     4    54    1
     8     4    59    1
     9     5    55    1
    10     5    61    1
    11     6    57    1
    12     6    63    1
    13     7    58    1
    14     7   137    1
    15     8    60    1
    16     8    66    1
    17     9    61    1
    18     9    68    1
    19    10    63    1
    20    10    71    1
    21    11    62    1
    22    11   144    1
    23    12    64    1
    24    12   149    1
    25    13    66    1
    26    13    76    1
    27    14    65    1
    28    14   153    1
    29    15    67    1
    30    15   155    1
    31    16    69    1
    32    16   160    1
    33    17    70    1
    34    17   161    1
    35    18    72    1
    36    18   162    1
    37    19    73    1
    38    19   163    1
    39    20    75    1
    40    20    80    1
    41    21    74    1
    42    21   166    1
    43    22    77    1
    44    22   167    1
    45    23    79    1
    46    23   170    1
    47    24    80    1
    48    24    83    1
    49    25    81    1
    50    25   174    1
    51    26    82    1
    52    26   177    1
    53    27    84    1
    54    27   178    1
    55    28    85    1
    56    28   179    1
    57    29    30    1
    58    29    31    1
    59    29    36    1
    60    29    41    1
    61    30    32    1
    62    30    35    1
    63    30    86    1
    64    31    33    1
    65    31    37    1
    66    31    87    1
    67    32    34    1
    68    32    42    1
    69    32    88    1
    70    33    35    1
    71    33    89    1
    72    34    38    1
    73    34    39    1
    74    34    90    1
    75    35    91    1
    76    35    92    1
    77    36    38    1
    78    36    93    1
    79    36    94    1
    80    37    40    1
    81    37    46    1
    82    37    95    1
    83    38    96    1
    84    38    97    1
    85    39    43    1
    86    39    44    1
    87    39    47    1
    88    40    48    1
    89    41    98    1
    90    41    99    1
    91    41   100    1
    92    42    45    1
    93    42   101    1
    94    42   102    1
    95    43    45    2
    96    43    49    1
    97    44    50    1
    98    44   103    1
    99    44   104    1
   100    45   105    1
   101    46   106    1
   102    46   107    1
   103    46   108    1
   104    47   109    1
   105    47   110    1
   106    47   111    1
   107    48    52    1
   108    48   112    1
   109    48   113    1
   110    49    51    1
   111    49   114    1
   112    49   115    1
   113    50    51    1
   114    50   116    1
   115    50   117    1
   116    51   118    1
   117    52    53    1
   118    52   120    1
   119    52   121    1
   120    53    55    1
   121    53    56    1
   122    53   122    1
   123    54    57    1
   124    54   123    1
   125    55   124    1
   126    55   125    1
   127    56   126    1
   128    56   127    1
   129    56   128    1
   130    57    58    1
   131    57   129    1
   132    58    60    1
   133    58   130    1
   134    59    60    1
   135    59    62    1
   136    59   131    1
   137    60   132    1
   138    61    64    1
   139    61   133    1
   140    62   134    1
   141    62   135    1
   142    63    65    1
   143    63   136    1
   144    64    67    1
   145    64   138    1
   146    65    70    1
   147    65   139    1
   148    66    72    1
   149    66   140    1
   150    67    69    1
   151    67   141    1
   152    68    69    1
   153    68    74    1
   154    68   142    1
   155    69   143    1
   156    70    73    1
   157    70   145    1
   158    71    73    1
   159    71    78    1
   160    71   146    1
   161    72    75    1
   162    72   147    1
   163    73   148    1
   164    74   150    1
   165    74   151    1
   166    75    77    1
   167    75   152    1
   168    76    77    1
   169    76    79    1
   170    76   154    1
   171    77   156    1
   172    78   157    1
   173    78   158    1
   174    78   159    1
   175    79   164    1
   176    79   165    1
   177    80    81    1
   178    80   168    1
   179    81    82    1
   180    81   169    1
   181    82    84    1
   182    82   171    1
   183    83    84    1
   184    83    85    1
   185    83   172    1
   186    84   173    1
   187    85   175    1
   188    85   176    1
