@<TRIPOS>MOLECULE
IMPHY000693
 40 42 0 0 0
SMALL
GASTEIGER

@<TRIPOS>ATOM
      1 O           6.0363   -1.4994    0.0000 O.3     1  UNL1       -0.4583
      2 O           8.2104   -0.1112    0.0000 O.3     1  UNL1       -0.3753
      3 O           2.4217   -0.1562    0.0000 O.3     1  UNL1       -0.3875
      4 O           7.4485   -2.5770    0.0000 O.2     1  UNL1       -0.2475
      5 O           9.2178   -0.7522    0.0000 O.3     1  UNL1       -0.3916
      6 C           4.9994   -0.0807    0.0000 C.3     1  UNL1        0.0263
      7 C           5.9003   -0.5146    0.0000 C.3     1  UNL1        0.1162
      8 C           6.8013   -0.0807    0.0000 C.3     1  UNL1        0.0385
      9 C           4.7768    0.8942    0.0000 C.3     1  UNL1       -0.0076
     10 C           7.4864   -0.8010    0.0000 C.3     1  UNL1        0.1914
     11 C           3.7865    0.9807    0.0000 C.3     1  UNL1       -0.0158
     12 C           7.0238    0.8942    0.0000 C.3     1  UNL1       -0.0399
     13 C           4.1447   -0.5884    0.0000 C.2     1  UNL1       -0.0414
     14 C           3.3966    0.0663    0.0000 C.3     1  UNL1        0.0770
     15 C           5.4003    1.6760    0.0000 C.2     1  UNL1       -0.0727
     16 C           6.4003    1.6760    0.0000 C.3     1  UNL1       -0.0312
     17 C           7.0146   -1.6760    0.0000 C.2     1  UNL1        0.3422
     18 C           8.3662   -1.2764    0.0000 C.3     1  UNL1        0.0838
     19 C           4.0533   -1.5842    0.0000 C.2     1  UNL1       -0.0966
     20 C           4.9664    2.5770    0.0000 C.2     1  UNL1       -0.0992
     21 H           5.0364   -0.9299    0.0000 H       1  UNL1        0.0388
     22 H           5.2133   -1.0151    0.0000 H       1  UNL1        0.0744
     23 H           7.6210    0.1443    0.0000 H       1  UNL1        0.0371
     24 H           4.4418    1.6754    0.0000 H       1  UNL1        0.0353
     25 H           3.9051    1.5893    0.0000 H       1  UNL1        0.0299
     26 H           3.1938    1.1626    0.0000 H       1  UNL1        0.0299
     27 H           7.5824    0.6252    0.0000 H       1  UNL1        0.0273
     28 H           7.4104    1.3789    0.0000 H       1  UNL1        0.0273
     29 H           2.9991    0.5421    0.0000 H       1  UNL1        0.0640
     30 H           6.9589    1.9450    0.0000 H       1  UNL1        0.0310
     31 H           6.2624    2.2805    0.0000 H       1  UNL1        0.0310
     32 H           7.9812   -1.7624    0.0000 H       1  UNL1        0.0591
     33 H           8.7779   -1.7400    0.0000 H       1  UNL1        0.0591
     34 H           3.4903   -1.8439    0.0000 H       1  UNL1        0.0535
     35 H           4.5597   -1.9420    0.0000 H       1  UNL1        0.0535
     36 H           8.0645    0.4913    0.0000 H       1  UNL1        0.2110
     37 H           5.3157    3.0892    0.0000 H       1  UNL1        0.0534
     38 H           4.3482    2.6233    0.0000 H       1  UNL1        0.0534
     39 H           2.0000    0.2983    0.0000 H       1  UNL1        0.2102
     40 H           9.7632   -1.0470    0.0000 H       1  UNL1        0.2095
@<TRIPOS>BOND
     1     1     7    1
     2     1    17    1
     3    10     2    1
     4     2    36    1
     5    14     3    1
     6     3    39    1
     7     4    17    2
     8     5    18    1
     9     5    40    1
    10     6     7    1
    11     6     9    1
    12     6    13    1
    13     6    21    1
    14     7     8    1
    15     7    22    1
    16     8    10    1
    17     8    12    1
    18     8    23    1
    19     9    11    1
    20     9    15    1
    21     9    24    1
    22    10    17    1
    23    10    18    1
    24    11    14    1
    25    11    25    1
    26    11    26    1
    27    12    16    1
    28    12    27    1
    29    12    28    1
    30    13    14    1
    31    13    19    2
    32    14    29    1
    33    15    16    1
    34    15    20    2
    35    16    30    1
    36    16    31    1
    37    18    32    1
    38    18    33    1
    39    19    34    1
    40    19    35    1
    41    20    37    1
    42    20    38    1
