@<TRIPOS>MOLECULE
IMPHY017328
 39 40 0 0 0
SMALL
GASTEIGER

@<TRIPOS>ATOM
      1 C           5.4641   -0.7673    0.0000 C.3     1  UNL1       -0.0218
      2 C           5.4641    0.2327    0.0000 C.3     1  UNL1       -0.0108
      3 C           6.3580   -1.3020    0.0000 C.3     1  UNL1       -0.0465
      4 C           4.5981   -1.2673    0.0000 C.3     1  UNL1       -0.0285
      5 C           4.5981    0.7327    0.0000 C.3     1  UNL1       -0.0245
      6 C           6.3580    0.7674    0.0000 C.2     1  UNL1       -0.0727
      7 C           7.2641   -0.7881    0.0000 C.3     1  UNL1       -0.0488
      8 C           7.2641    0.2535    0.0000 C.3     1  UNL1       -0.0317
      9 C           5.4641   -1.7673    0.0000 C.3     1  UNL1       -0.0587
     10 C           3.7320    0.2327    0.0000 C.2     1  UNL1       -0.0703
     11 C           3.7320   -0.7673    0.0000 C.2     1  UNL1       -0.0840
     12 C           2.8660    0.7327    0.0000 C.3     1  UNL1       -0.0255
     13 C           6.3465    1.7673    0.0000 C.2     1  UNL1       -0.0992
     14 C           2.0000    0.2327    0.0000 C.3     1  UNL1       -0.0590
     15 C           2.8660    1.7327    0.0000 C.3     1  UNL1       -0.0590
     16 H           5.4593    0.8527    0.0000 H       1  UNL1        0.0354
     17 H           5.9534   -1.7718    0.0000 H       1  UNL1        0.0271
     18 H           6.7517   -1.7810    0.0000 H       1  UNL1        0.0271
     19 H           4.1996   -1.7422    0.0000 H       1  UNL1        0.0313
     20 H           4.9966   -1.7422    0.0000 H       1  UNL1        0.0313
     21 H           4.9966    1.2076    0.0000 H       1  UNL1        0.0316
     22 H           4.1996    1.2076    0.0000 H       1  UNL1        0.0316
     23 H           7.4732   -1.3718    0.0000 H       1  UNL1        0.0268
     24 H           7.8750   -0.6820    0.0000 H       1  UNL1        0.0268
     25 H           7.8750    0.1474    0.0000 H       1  UNL1        0.0310
     26 H           7.4732    0.8372    0.0000 H       1  UNL1        0.0310
     27 H           4.8441   -1.7673    0.0000 H       1  UNL1        0.0235
     28 H           5.4641   -2.3873    0.0000 H       1  UNL1        0.0235
     29 H           6.0841   -1.7673    0.0000 H       1  UNL1        0.0235
     30 H           3.1951   -1.0773    0.0000 H       1  UNL1        0.0572
     31 H           2.8660    0.1127    0.0000 H       1  UNL1        0.0340
     32 H           6.8798    2.0835    0.0000 H       1  UNL1        0.0534
     33 H           5.8060    2.0711    0.0000 H       1  UNL1        0.0534
     34 H           1.6900    0.7696    0.0000 H       1  UNL1        0.0235
     35 H           1.4631   -0.0773    0.0000 H       1  UNL1        0.0235
     36 H           2.3100   -0.3042    0.0000 H       1  UNL1        0.0235
     37 H           3.4860    1.7327    0.0000 H       1  UNL1        0.0235
     38 H           2.8660    2.3527    0.0000 H       1  UNL1        0.0235
     39 H           2.2460    1.7327    0.0000 H       1  UNL1        0.0235
@<TRIPOS>BOND
     1     1     2    1
     2     1     3    1
     3     1     4    1
     4     1     9    1
     5     2     5    1
     6     2     6    1
     7     2    16    1
     8     3     7    1
     9     3    17    1
    10     3    18    1
    11     4    11    1
    12     4    19    1
    13     4    20    1
    14     5    10    1
    15     5    21    1
    16     5    22    1
    17     6     8    1
    18     6    13    2
    19     7     8    1
    20     7    23    1
    21     7    24    1
    22     8    25    1
    23     8    26    1
    24     9    27    1
    25     9    28    1
    26     9    29    1
    27    10    11    2
    28    10    12    1
    29    11    30    1
    30    12    14    1
    31    12    15    1
    32    12    31    1
    33    13    32    1
    34    13    33    1
    35    14    34    1
    36    14    35    1
    37    14    36    1
    38    15    37    1
    39    15    38    1
    40    15    39    1
