@<TRIPOS>MOLECULE
IMPHY006428
 29 28 0 0 0
SMALL
GASTEIGER

@<TRIPOS>ATOM
      1 O           4.5981   -1.1900    0.0000 O.3     1  UNL1       -0.3944
      2 C           5.4641    0.3100    0.0000 C.3     1  UNL1        0.0062
      3 C           4.5981    0.8100    0.0000 C.3     1  UNL1       -0.0259
      4 C           5.4641   -0.6900    0.0000 C.3     1  UNL1        0.0510
      5 C           6.3301    0.8100    0.0000 C.2     1  UNL1       -0.0742
      6 C           3.7320    0.3100    0.0000 C.2     1  UNL1       -0.0847
      7 C           2.8660    0.8100    0.0000 C.2     1  UNL1       -0.0796
      8 C           7.1962    0.3100    0.0000 C.3     1  UNL1       -0.0437
      9 C           6.3301    1.8100    0.0000 C.2     1  UNL1       -0.0994
     10 C           2.0000    0.3100    0.0000 C.3     1  UNL1       -0.0440
     11 C           2.8660    1.8100    0.0000 C.3     1  UNL1       -0.0440
     12 H           5.4641    0.9300    0.0000 H       1  UNL1        0.0371
     13 H           4.9966    1.2850    0.0000 H       1  UNL1        0.0314
     14 H           4.1996    1.2850    0.0000 H       1  UNL1        0.0314
     15 H           5.6762   -1.2726    0.0000 H       1  UNL1        0.0563
     16 H           6.0747   -0.5823    0.0000 H       1  UNL1        0.0563
     17 H           3.7320   -0.3100    0.0000 H       1  UNL1        0.0572
     18 H           6.8862   -0.2269    0.0000 H       1  UNL1        0.0274
     19 H           7.7331    0.0000    0.0000 H       1  UNL1        0.0274
     20 H           7.5062    0.8469    0.0000 H       1  UNL1        0.0274
     21 H           6.8671    2.1200    0.0000 H       1  UNL1        0.0534
     22 H           5.7932    2.1200    0.0000 H       1  UNL1        0.0534
     23 H           1.6900    0.8469    0.0000 H       1  UNL1        0.0274
     24 H           1.4631    0.0000    0.0000 H       1  UNL1        0.0274
     25 H           2.3100   -0.2269    0.0000 H       1  UNL1        0.0274
     26 H           3.4860    1.8100    0.0000 H       1  UNL1        0.0274
     27 H           2.8660    2.4300    0.0000 H       1  UNL1        0.0274
     28 H           2.2460    1.8100    0.0000 H       1  UNL1        0.0274
     29 H           4.5981   -1.8100    0.0000 H       1  UNL1        0.2094
@<TRIPOS>BOND
     1     1     4    1
     2     1    29    1
     3     2     3    1
     4     2     4    1
     5     2     5    1
     6     2    12    1
     7     3     6    1
     8     3    13    1
     9     3    14    1
    10     4    15    1
    11     4    16    1
    12     5     8    1
    13     5     9    2
    14     6     7    2
    15     6    17    1
    16     7    10    1
    17     7    11    1
    18     8    18    1
    19     8    19    1
    20     8    20    1
    21     9    21    1
    22     9    22    1
    23    10    23    1
    24    10    24    1
    25    10    25    1
    26    11    26    1
    27    11    27    1
    28    11    28    1
