@<TRIPOS>MOLECULE
IMPHY002403
 77 80 0 0 0
SMALL
GASTEIGER

@<TRIPOS>ATOM
      1 CG2         8.8423    1.3716    0.0000 C.3     8  THR8        0.0379
      2 CB          9.5567    0.9591    0.0000 C.3     8  THR8        0.1808
      3 CA          9.5567    0.1341    0.0000 C.3     8  THR8        0.2028
      4 C           8.8423   -0.2784    0.0000 C.2     8  THR8        0.2642
      5 O           9.3272   -0.9459    0.0000 O.2     8  THR8       -0.2714
      6 N           8.1278    0.1341    0.0000 N.am    9  TRP9       -0.1959
      7 CA          7.4133   -0.2784    0.0000 C.3     9  TRP9        0.1771
      8 CB          7.4133   -1.1034    0.0000 C.3     9  TRP9        0.0590
      9 CG          8.1278   -1.5159    0.0000 C.ar    9  TRP9        0.0006
     10 CD1         8.8815   -1.1804    0.0000 C.ar    9  TRP9        0.0946
     11 NE1         9.4335   -1.7935    0.0000 N.ar    9  TRP9       -0.2442
     12 CE2         9.0210   -2.5079    0.0000 C.ar    9  TRP9        0.0810
     13 CZ2         9.2760   -3.2926    0.0000 C.ar    9  TRP9        0.0191
     14 CH2         8.7239   -3.9056    0.0000 C.ar    9  TRP9        0.0015
     15 CZ3         7.9169   -3.7341    0.0000 C.ar    9  TRP9        0.0001
     16 CE3         7.6620   -2.9495    0.0000 C.ar    9  TRP9        0.0012
     17 CD2         8.2140   -2.3364    0.0000 C.ar    9  TRP9        0.0152
     18 C           6.6989    0.1341    0.0000 C.2     9  TRP9        0.2621
     19 O           6.6989    0.9591    0.0000 O.2     9  TRP9       -0.2715
     20 N           5.9844   -0.2784    0.0000 N.am   10  GLY10      -0.1917
     21 CA          5.2699    0.1341    0.0000 C.3    10  GLY10       0.2285
     22 C           4.5555   -0.2784    0.0000 C.2    10  GLY10       0.3865
     23 O           3.8410    0.1341    0.0000 O.co2  10  GLY10      -0.2437
     24 OXT         4.5555   -1.1034    0.0000 O.co2  10  GLY10      -0.2437
     25 N          10.2712   -0.2784    0.0000 N.am    8  THR8       -0.1936
     26 C          10.9857    0.1341    0.0000 C.2     7  GLY7        0.2640
     27 O          10.9857    0.9591    0.0000 O.2     7  GLY7       -0.2714
     28 CA         11.7002   -0.2784    0.0000 C.3     7  GLY7        0.2014
     29 N          12.4146    0.1341    0.0000 N.am    7  GLY7       -0.1939
     30 C          13.1291   -0.2784    0.0000 C.2     6  THR6        0.2643
     31 O          13.1291   -1.1034    0.0000 O.2     6  THR6       -0.2714
     32 CA         13.8436    0.1341    0.0000 C.3     6  THR6        0.2028
     33 CB         13.8436    0.9591    0.0000 C.3     6  THR6        0.1808
     34 CG2        14.5580    1.3716    0.0000 C.3     6  THR6        0.0379
     35 OG1        13.1291    1.3716    0.0000 O.3     6  THR6       -0.2208
     36 N          14.5580   -0.2784    0.0000 N.am    6  THR6       -0.1937
     37 C          15.2725    0.1341    0.0000 C.2     5  GLU5        0.2617
     38 O          15.2725    0.9591    0.0000 O.2     5  GLU5       -0.2715
     39 CA         15.9870   -0.2784    0.0000 C.3     5  GLU5        0.1733
     40 CB         16.7015    0.1341    0.0000 C.3     5  GLU5        0.0429
     41 CG         17.4159   -0.2784    0.0000 C.3     5  GLU5        0.1163
     42 CD         18.1304    0.1341    0.0000 C.2     5  GLU5        0.3649
     43 OE1        18.1304    0.9591    0.0000 O.co2   5  GLU5       -0.2457
     44 OE2        18.8449   -0.2784    0.0000 O.co2   5  GLU5       -0.2457
     45 N          15.9870   -1.1034    0.0000 N.am    5  GLU5       -0.1964
     46 C          16.7015   -1.5159    0.0000 C.2     4  PRO4        0.2598
     47 O          17.4159   -1.1034    0.0000 O.2     4  PRO4       -0.2715
     48 CA         16.7015   -2.3409    0.0000 C.3     4  PRO4        0.1536
     49 CB         16.0340   -2.8258    0.0000 C.3     4  PRO4        0.0310
     50 CG         16.2890   -3.6105    0.0000 C.3     4  PRO4        0.0237
     51 CD         17.1140   -3.6105    0.0000 C.3     4  PRO4        0.0939
     52 N          17.3689   -2.8258    0.0000 N.am    4  PRO4       -0.2715
     53 C          18.1535   -2.5709    0.0000 C.2     3  ASP3        0.2464
     54 O          18.3250   -1.7639    0.0000 O.2     3  ASP3       -0.2730
     55 CA         18.7666   -3.1229    0.0000 C.3     3  ASP3        0.1825
     56 CB         19.5512   -2.8680    0.0000 C.3     3  ASP3        0.1450
     57 CG         19.7228   -2.0610    0.0000 C.2     3  ASP3        0.3671
     58 OD1        20.5074   -1.8061    0.0000 O.co2   3  ASP3       -0.2456
     59 OD2        19.1097   -1.5090    0.0000 O.co2   3  ASP3       -0.2456
     60 N          18.5951   -3.9299    0.0000 N.am    3  ASP3       -0.1958
     61 C          17.8105   -4.1849    0.0000 C.2     2  TYR2        0.2620
     62 O          16.9900   -4.0986    0.0000 O.2     2  TYR2       -0.2715
     63 CA         17.6389   -4.9918    0.0000 C.3     2  TYR2        0.1772
     64 CB         18.2520   -5.5439    0.0000 C.3     2  TYR2        0.0574
     65 CG         19.0367   -5.2889    0.0000 C.ar    2  TYR2       -0.0198
     66 CD1        19.2082   -4.4819    0.0000 C.ar    2  TYR2       -0.0009
     67 CE1        19.9928   -4.2270    0.0000 C.ar    2  TYR2        0.0417
     68 CZ         20.6059   -4.7790    0.0000 C.ar    2  TYR2        0.1957
     69 CE2        20.4344   -5.5860    0.0000 C.ar    2  TYR2        0.0417
     70 CD2        19.6497   -5.8409    0.0000 C.ar    2  TYR2       -0.0009
     71 OH         21.3905   -4.5241    0.0000 O.3     2  TYR2       -0.2866
     72 N          16.8543   -5.2468    0.0000 N.am    2  TYR2       -0.1919
     73 C          16.6828   -6.0537    0.0000 C.2     1  GLY1        0.3172
     74 O          17.2959   -6.6058    0.0000 O.2     1  GLY1       -0.2662
     75 CA         15.8982   -6.3087    0.0000 C.3     1  GLY1        0.4026
     76 N          15.7266   -7.1156    0.0000 N.4     1  GLY1        0.6061
     77 OG1        10.2712    1.3716    0.0000 O.3     8  THR8       -0.2208
@<TRIPOS>UNITY_ATOM_ATTR
76 1
charge 1
@<TRIPOS>BOND
     1     1     2    1
     2     2     3    1
     3     3     4    1
     4     4     5    2
     5     4     6   am
     6     7     6    1
     7     7     8    1
     8     8     9    1
     9     9    10   ar
    10    10    11   ar
    11    11    12   ar
    12    12    13   ar
    13    13    14   ar
    14    14    15   ar
    15    15    16   ar
    16    16    17   ar
    17    12    17   ar
    18     9    17   ar
    19     7    18    1
    20    18    19    2
    21    18    20   am
    22    20    21    1
    23    21    22    1
    24    22    23   ar
    25    22    24   ar
    26     3    25    1
    27    25    26   am
    28    26    27    2
    29    26    28    1
    30    28    29    1
    31    29    30   am
    32    30    31    2
    33    30    32    1
    34    32    33    1
    35    33    34    1
    36    33    35    1
    37    32    36    1
    38    36    37   am
    39    37    38    2
    40    37    39    1
    41    39    40    1
    42    40    41    1
    43    41    42    1
    44    42    43   ar
    45    42    44   ar
    46    39    45    1
    47    45    46   am
    48    46    47    2
    49    48    46    1
    50    48    49    1
    51    49    50    1
    52    50    51    1
    53    51    52    1
    54    48    52    1
    55    52    53   am
    56    53    54    2
    57    53    55    1
    58    55    56    1
    59    56    57    1
    60    57    58   ar
    61    57    59   ar
    62    55    60    1
    63    60    61   am
    64    61    62    2
    65    61    63    1
    66    63    64    1
    67    64    65    1
    68    65    66   ar
    69    66    67   ar
    70    67    68   ar
    71    68    69   ar
    72    69    70   ar
    73    65    70   ar
    74    68    71    1
    75    63    72    1
    76    72    73   am
    77    73    74    2
    78    73    75    1
    79    75    76    1
    80     2    77    1
