@<TRIPOS>MOLECULE
IMPHY008101
 46 50 0 0 0
SMALL
GASTEIGER

@<TRIPOS>ATOM
      1 O           8.1439    1.2362    0.0000 O.3     1  UNL1       -0.4546
      2 O           7.2626    3.6769    0.0000 O.3     1  UNL1       -0.3732
      3 O           3.3552   -1.3275    0.0000 O.3     1  UNL1       -0.4532
      4 O           9.2688    2.7022    0.0000 O.2     1  UNL1       -0.2472
      5 O           2.0000   -0.1305    0.0000 O.2     1  UNL1       -0.2453
      6 O           5.7888   -3.7068    0.0000 O.2     1  UNL1       -0.4706
      7 C           5.3723    1.1530    0.0000 C.3     1  UNL1        0.0186
      8 C           5.0302    2.0927    0.0000 C.3     1  UNL1        0.0215
      9 C           4.7151    0.3449    0.0000 C.3     1  UNL1        0.0102
     10 C           7.0038    2.7110    0.0000 C.3     1  UNL1        0.1867
     11 C           6.7450    1.7450    0.0000 C.3     1  UNL1        0.1257
     12 C           4.0074    2.2894    0.0000 C.3     1  UNL1       -0.0247
     13 C           3.6879    0.5178    0.0000 C.2     1  UNL1        0.0391
     14 C           5.1097   -0.6658    0.0000 C.3     1  UNL1       -0.0013
     15 C           4.6882    3.0324    0.0000 C.3     1  UNL1       -0.0554
     16 C           3.3317    1.4966    0.0000 C.2     1  UNL1       -0.0729
     17 C           5.7012    0.1788    0.0000 C.3     1  UNL1       -0.0548
     18 C           6.6332    4.0596    0.0000 C.2     1  UNL1       -0.0420
     19 C           5.7672    3.5596    0.0000 C.2     1  UNL1       -0.0444
     20 C           8.4027    2.2022    0.0000 C.2     1  UNL1        0.3443
     21 C           4.4252   -1.5076    0.0000 C.3     1  UNL1        0.1321
     22 C           2.9841   -0.3079    0.0000 C.2     1  UNL1        0.3360
     23 C           4.7780   -2.4433    0.0000 C.ar    1  UNL1        0.0304
     24 C           4.2284   -3.2788    0.0000 C.ar    1  UNL1       -0.0172
     25 C           5.7424   -2.7078    0.0000 C.ar    1  UNL1        0.0983
     26 C           4.8532   -4.0596    0.0000 C.ar    1  UNL1        0.0921
     27 H           5.7463    0.6586    0.0000 H       1  UNL1        0.0355
     28 H           7.1504    2.2141    0.0000 H       1  UNL1        0.0782
     29 H           4.2269    2.8692    0.0000 H       1  UNL1        0.0314
     30 H           3.4736    2.6049    0.0000 H       1  UNL1        0.0314
     31 H           5.5167   -1.1336    0.0000 H       1  UNL1        0.0313
     32 H           5.6401   -0.3449    0.0000 H       1  UNL1        0.0313
     33 H           5.2708    3.2445    0.0000 H       1  UNL1        0.0236
     34 H           4.4762    3.6150    0.0000 H       1  UNL1        0.0236
     35 H           4.1056    2.8204    0.0000 H       1  UNL1        0.0236
     36 H           2.7215    1.6067    0.0000 H       1  UNL1        0.0577
     37 H           5.5983   -0.4326    0.0000 H       1  UNL1        0.0238
     38 H           6.3126    0.0759    0.0000 H       1  UNL1        0.0238
     39 H           5.8042    0.7902    0.0000 H       1  UNL1        0.0238
     40 H           6.8686    4.6332    0.0000 H       1  UNL1        0.0604
     41 H           5.1707    3.7288    0.0000 H       1  UNL1        0.0606
     42 H           4.0312   -1.9864    0.0000 H       1  UNL1        0.0786
     43 H           7.8615    3.8374    0.0000 H       1  UNL1        0.2113
     44 H           3.6091   -3.3076    0.0000 H       1  UNL1        0.0653
     45 H           6.2265   -2.3205    0.0000 H       1  UNL1        0.1033
     46 H           4.6892   -4.6575    0.0000 H       1  UNL1        0.1029
@<TRIPOS>BOND
     1     1    11    1
     2     1    20    1
     3     2    10    1
     4     2    43    1
     5     3    21    1
     6     3    22    1
     7     4    20    2
     8     5    22    2
     9     6    25   ar
    10     6    26   ar
    11     7     8    1
    12     7     9    1
    13     7    11    1
    14     7    27    1
    15     8    10    1
    16     8    12    1
    17     8    15    1
    18     9    13    1
    19     9    14    1
    20     9    17    1
    21    10    18    1
    22    10    20    1
    23    11    19    1
    24    11    28    1
    25    12    16    1
    26    12    29    1
    27    12    30    1
    28    13    16    2
    29    13    22    1
    30    14    21    1
    31    14    31    1
    32    14    32    1
    33    15    33    1
    34    15    34    1
    35    15    35    1
    36    16    36    1
    37    17    37    1
    38    17    38    1
    39    17    39    1
    40    18    19    2
    41    18    40    1
    42    19    41    1
    43    21    23    1
    44    21    42    1
    45    23    24   ar
    46    23    25   ar
    47    24    26   ar
    48    24    44    1
    49    25    45    1
    50    26    46    1
