@<TRIPOS>MOLECULE
IMPHY000777
 103 107 0 0 0
SMALL
GASTEIGER

@<TRIPOS>ATOM
      1 O           8.7361    1.2603    0.0000 O.2     6  UNK6       -0.2735
      2 O           6.0751    2.6471    0.0000 O.2     5  ALA5       -0.2736
      3 O           6.8658   -4.6749    0.0000 O.2     1  UNK1       -0.2737
      4 O          12.2093    0.9583    0.0000 O.3     6  UNK6       -0.4524
      5 O           3.9813    1.1482    0.0000 O.2     4  UNK4       -0.2737
      6 O           3.3572   -1.3501    0.0000 O.2     3  ALA3       -0.2736
      7 O           4.5002   -3.6576    0.0000 O.2     2  ALA2       -0.2738
      8 O          13.9414    1.9583    0.0000 O.3     1  UNK1       -0.5033
      9 O           2.9351    4.3205    0.0000 O.3     4  UNK4       -0.4951
     10 N           8.9773    3.0923    0.0000 N.am    1  UNK1       -0.2911
     11 N           6.9735    1.7796    0.0000 N.am    6  UNK6       -0.2911
     12 N           4.3577   -0.6028    0.0000 N.am    4  UNK4       -0.2911
     13 N           5.2276    1.0693    0.0000 N.am    5  ALA5       -0.3027
     14 N           6.2889   -3.5673    0.0000 N.am    2  ALA2       -0.3027
     15 N           4.7783   -2.4401    0.0000 N.am    3  ALA3       -0.3027
     16 C           7.6112    1.7262    0.0000 C.3     6  UNK6        0.1060
     17 C           9.9773    3.0923    0.0000 C.3     1  UNK1        0.1058
     18 C           8.1112    0.8602    0.0000 C.3     6  UNK6       -0.0005
     19 C           8.4773    2.2262    0.0000 C.2     6  UNK6        0.2368
     20 C          10.4773    3.9583    0.0000 C.3     1  UNK1       -0.0003
     21 C           4.5128    0.0181    0.0000 C.3     4  UNK4        0.1058
     22 CA          5.7480    1.4418    0.0000 C.3     5  ALA5        0.0968
     23 C           6.3408    1.6830    0.0000 C.2     5  ALA5        0.2360
     24 C           6.9196   -3.6764    0.0000 C.2     1  UNK1        0.2345
     25 C           9.1112    0.8602    0.0000 C.ar    6  UNK6       -0.0449
     26 C           3.5777    0.3725    0.0000 C.3     4  UNK4       -0.0005
     27 C          11.3433    3.4583    0.0000 C.ar    1  UNK1       -0.0414
     28 C           8.4773    3.9583    0.0000 C.3     1  UNK1        0.0040
     29 C           4.8082    0.5859    0.0000 C.2     4  UNK4        0.2345
     30 C           6.9394    2.7790    0.0000 C.3     6  UNK6        0.0040
     31 CA          5.7010   -3.3144    0.0000 C.3     2  ALA2        0.0966
     32 CA          4.4942   -1.8666    0.0000 C.3     3  ALA3        0.0968
     33 C           4.3514   -1.2428    0.0000 C.2     3  ALA3        0.2360
     34 CB          5.2652    2.3176    0.0000 C.3     5  ALA5       -0.0381
     35 C           3.4171    1.3595    0.0000 C.ar    4  UNK4       -0.0449
     36 C           9.6079    1.7359    0.0000 C.ar    6  UNK6       -0.0550
     37 C           9.6112   -0.0058    0.0000 C.ar    6  UNK6       -0.0550
     38 C           5.1881   -2.9317    0.0000 C.2     2  ALA2        0.2337
     39 C          11.3433    2.4583    0.0000 C.ar    1  UNK1       -0.0124
     40 C           3.3658   -0.4758    0.0000 C.3     4  UNK4        0.0040
     41 C          12.2093    3.9583    0.0000 C.ar    1  UNK1       -0.0548
     42 CB          5.2010   -4.1805    0.0000 C.3     2  ALA2       -0.0381
     43 C          12.2093    1.9583    0.0000 C.ar    1  UNK1        0.1698
     44 CB          3.5523   -2.2024    0.0000 C.3     3  ALA3       -0.0381
     45 C          11.1112    0.8602    0.0000 C.ar    6  UNK6        0.1286
     46 C          10.6146    1.7359    0.0000 C.ar    6  UNK6       -0.0191
     47 C          10.6112   -0.0058    0.0000 C.ar    6  UNK6       -0.0191
     48 C          13.0753    3.4583    0.0000 C.ar    1  UNK1       -0.0162
     49 C          13.0753    2.4583    0.0000 C.ar    1  UNK1        0.1591
     50 C           4.1915    1.9921    0.0000 C.ar    4  UNK4       -0.0550
     51 C           2.4820    1.7139    0.0000 C.ar    4  UNK4       -0.0550
     52 C           4.0309    2.9792    0.0000 C.ar    4  UNK4       -0.0197
     53 C           2.3213    2.7009    0.0000 C.ar    4  UNK4       -0.0197
     54 C           3.0958    3.3335    0.0000 C.ar    4  UNK4        0.1201
     55 C           2.0000    4.6749    0.0000 C.3     4  UNK4        0.0788
     56 H           7.6112    2.5762    0.0000 H       6  UNK6        0.0600
     57 H          10.4023    2.3561    0.0000 H       1  UNK1        0.0600
     58 H           7.5286    0.6482    0.0000 H       6  UNK6        0.0336
     59 H           8.2189    0.2496    0.0000 H       6  UNK6        0.0336
     60 H          10.7873    4.4952    0.0000 H       1  UNK1        0.0336
     61 H           9.9403    4.2683    0.0000 H       1  UNK1        0.0336
     62 H           3.9634   -0.2692    0.0000 H       4  UNK4        0.0600
     63 HA          5.1433    1.5788    0.0000 H       5  ALA5        0.0592
     64 H           2.9578    0.3807    0.0000 H       4  UNK4        0.0336
     65 H           3.4620   -0.2366    0.0000 H       4  UNK4        0.0336
     66 H           9.0142    4.2683    0.0000 H       1  UNK1        0.0429
     67 H           8.1673    4.4952    0.0000 H       1  UNK1        0.0429
     68 H           7.9403    3.6483    0.0000 H       1  UNK1        0.0429
     69 H           4.8101    1.5277    0.0000 H       5  ALA5        0.1495
     70 H           7.5591    2.8001    0.0000 H       6  UNK6        0.0429
     71 H           6.9184    3.3986    0.0000 H       6  UNK6        0.0429
     72 H           6.3198    2.7579    0.0000 H       6  UNK6        0.0429
     73 HA          5.8963   -3.9029    0.0000 H       2  ALA2        0.0592
     74 H           6.1124   -4.1616    0.0000 H       2  ALA2        0.1495
     75 HA          4.2618   -2.4414    0.0000 H       3  ALA3        0.0592
     76 HB1         5.8082    2.6169    0.0000 H       5  ALA5        0.0252
     77 HB2         4.9659    2.8605    0.0000 H       5  ALA5        0.0252
     78 HB3         4.7222    2.0182    0.0000 H       5  ALA5        0.0252
     79 H           9.2958    2.2717    0.0000 H       6  UNK6        0.0621
     80 H           9.3012   -0.5427    0.0000 H       6  UNK6        0.0621
     81 H           4.2588   -2.7785    0.0000 H       3  ALA3        0.1495
     82 H          10.8063    2.1483    0.0000 H       1  UNK1        0.0658
     83 H           3.4446    0.1392    0.0000 H       4  UNK4        0.0429
     84 H           2.7508   -0.3971    0.0000 H       4  UNK4        0.0429
     85 H           3.2871   -1.0908    0.0000 H       4  UNK4        0.0429
     86 H          12.2093    4.5783    0.0000 H       1  UNK1        0.0621
     87 HB1         4.6640   -3.8705    0.0000 H       2  ALA2        0.0252
     88 HB2         4.8910   -4.7174    0.0000 H       2  ALA2        0.0252
     89 HB3         5.7379   -4.4905    0.0000 H       2  ALA2        0.0252
     90 HB1         3.3441   -1.6184    0.0000 H       3  ALA3        0.0252
     91 HB2         2.9683   -2.4106    0.0000 H       3  ALA3        0.0252
     92 HB3         3.7605   -2.7864    0.0000 H       3  ALA3        0.0252
     93 H          10.9267    2.2717    0.0000 H       6  UNK6        0.0654
     94 H          10.9212   -0.5427    0.0000 H       6  UNK6        0.0654
     95 H          13.6123    3.7683    0.0000 H       1  UNK1        0.0655
     96 H           4.7713    1.7724    0.0000 H       4  UNK4        0.0621
     97 H           2.0018    1.3216    0.0000 H       4  UNK4        0.0621
     98 H           4.5110    3.3714    0.0000 H       4  UNK4        0.0654
     99 H           1.7416    2.9206    0.0000 H       4  UNK4        0.0654
    100 H          14.4783    2.2683    0.0000 H       1  UNK1        0.2923
    101 H           2.2197    5.2547    0.0000 H       4  UNK4        0.0660
    102 H           1.4202    4.8946    0.0000 H       4  UNK4        0.0660
    103 H           1.7803    4.0951    0.0000 H       4  UNK4        0.0660
@<TRIPOS>BOND
     1     1    19    2
     2     2    23    2
     3     3    24    2
     4     4    43    1
     5     4    45    1
     6     5    29    2
     7     6    33    2
     8     7    38    2
     9     8    49    1
    10     8   100    1
    11     9    54    1
    12     9    55    1
    13    10    17    1
    14    10    19   am
    15    10    28    1
    16    11    16    1
    17    11    23   am
    18    11    30    1
    19    12    21    1
    20    12    33   am
    21    12    40    1
    22    13    22    1
    23    13    29   am
    24    13    69    1
    25    14    24   am
    26    14    31    1
    27    14    74    1
    28    15    32    1
    29    15    38   am
    30    15    81    1
    31    16    18    1
    32    16    19    1
    33    16    56    1
    34    17    20    1
    35    17    24    1
    36    17    57    1
    37    18    25    1
    38    18    58    1
    39    18    59    1
    40    20    27    1
    41    20    60    1
    42    20    61    1
    43    21    26    1
    44    21    29    1
    45    21    62    1
    46    22    23    1
    47    22    34    1
    48    22    63    1
    49    25    36   ar
    50    25    37   ar
    51    26    35    1
    52    26    64    1
    53    26    65    1
    54    27    39   ar
    55    27    41   ar
    56    28    66    1
    57    28    67    1
    58    28    68    1
    59    30    70    1
    60    30    71    1
    61    30    72    1
    62    31    38    1
    63    31    42    1
    64    31    73    1
    65    32    33    1
    66    32    44    1
    67    32    75    1
    68    34    76    1
    69    34    77    1
    70    34    78    1
    71    35    50   ar
    72    35    51   ar
    73    36    46   ar
    74    36    79    1
    75    37    47   ar
    76    37    80    1
    77    39    43   ar
    78    39    82    1
    79    40    83    1
    80    40    84    1
    81    40    85    1
    82    41    48   ar
    83    41    86    1
    84    42    87    1
    85    42    88    1
    86    42    89    1
    87    43    49   ar
    88    44    90    1
    89    44    91    1
    90    44    92    1
    91    45    46   ar
    92    45    47   ar
    93    46    93    1
    94    47    94    1
    95    48    49   ar
    96    48    95    1
    97    50    52   ar
    98    50    96    1
    99    51    53   ar
   100    51    97    1
   101    52    54   ar
   102    52    98    1
   103    53    54   ar
   104    53    99    1
   105    55   101    1
   106    55   102    1
   107    55   103    1
