@<TRIPOS>MOLECULE
IMPHY001701
 240 255 0 0 0
SMALL
GASTEIGER

@<TRIPOS>ATOM
      1 O          14.6049   -3.4438    0.0000 O.3     1  UNL1       -0.4512
      2 O           6.5528   -5.1527    0.0000 O.3     1  UNL1       -0.4512
      3 O          15.7067   -5.9339    0.0000 O.3     1  UNL1       -0.4498
      4 O          22.1618    5.3331    0.0000 O.3     1  UNL1       -0.4512
      5 O           6.4023   -2.3812    0.0000 O.3     1  UNL1       -0.4498
      6 O          22.0967    3.4506    0.0000 O.3     1  UNL1       -0.4498
      7 O          16.3297   -5.5346    0.0000 O.3     1  UNL1       -0.3846
      8 O          14.1712   -6.9600    0.0000 O.3     1  UNL1       -0.4464
      9 O           8.5623   -4.6225    0.0000 O.3     1  UNL1       -0.3846
     10 O           8.6880   -3.4881    0.0000 O.3     1  UNL1       -0.4464
     11 O          16.0709   -3.1544    0.0000 O.3     1  UNL1       -0.4584
     12 O          19.5184    4.7345    0.0000 O.3     1  UNL1       -0.3846
     13 O          20.3608    2.4573    0.0000 O.3     1  UNL1       -0.4464
     14 O           8.5838   -6.2344    0.0000 O.3     1  UNL1       -0.4584
     15 O          21.1793    6.4588    0.0000 O.3     1  UNL1       -0.4584
     16 O          11.5012   -2.4460    0.0000 O.3     1  UNL1       -0.4476
     17 O          16.1011   -2.6649    0.0000 O.2     1  UNL1       -0.2449
     18 O          17.7569    0.9673    0.0000 O.3     1  UNL1       -0.4476
     19 O          12.6419   -4.9965    0.0000 O.2     1  UNL1       -0.2970
     20 O          11.3857   -8.9342    0.0000 O.3     1  UNL1       -0.4476
     21 O           7.7575   -1.1252    0.0000 O.2     1  UNL1       -0.2970
     22 O           5.6827   -6.4197    0.0000 O.2     1  UNL1       -0.2449
     23 O          19.5044    4.9606    0.0000 O.2     1  UNL1       -0.2970
     24 O          13.3565    0.4568    0.0000 O.3     1  UNL1       -0.5028
     25 O          21.4548    6.8646    0.0000 O.2     1  UNL1       -0.2449
     26 O          14.2171    0.9537    0.0000 O.3     1  UNL1       -0.5028
     27 O          15.1776   -1.4690    0.0000 O.2     1  UNL1       -0.2449
     28 O          15.1239   -7.5649    0.0000 O.2     1  UNL1       -0.2449
     29 O          11.5748   -0.5536    0.0000 O.3     1  UNL1       -0.5009
     30 O           4.9892   -3.3828    0.0000 O.2     1  UNL1       -0.2449
     31 O           7.7680   -6.8126    0.0000 O.2     1  UNL1       -0.2449
     32 O           7.7495   -9.4649    0.0000 O.3     1  UNL1       -0.5028
     33 O           8.2939   -9.4593    0.0000 O.3     1  UNL1       -0.5028
     34 O          13.5773   -8.5132    0.0000 O.2     1  UNL1       -0.2448
     35 O          21.2249    1.9540    0.0000 O.2     1  UNL1       -0.2449
     36 O          15.9831    1.9915    0.0000 O.3     1  UNL1       -0.5009
     37 O           9.7938   -2.1550    0.0000 O.2     1  UNL1       -0.2448
     38 O          22.9170    7.2455    0.0000 O.2     1  UNL1       -0.2449
     39 O          18.6287    2.4640    0.0000 O.2     1  UNL1       -0.2448
     40 O          25.5357    7.6547    0.0000 O.3     1  UNL1       -0.5028
     41 O           9.4704  -10.7033    0.0000 O.3     1  UNL1       -0.5009
     42 O           6.3255  -10.0406    0.0000 O.3     1  UNL1       -0.5009
     43 O           4.8488   -8.6151    0.0000 O.3     1  UNL1       -0.5032
     44 O          25.1590    8.5742    0.0000 O.3     1  UNL1       -0.5028
     45 O          25.0737    4.1451    0.0000 O.3     1  UNL1       -0.5032
     46 O          26.3269    5.7653    0.0000 O.3     1  UNL1       -0.5009
     47 O          24.3971   10.4755    0.0000 O.3     1  UNL1       -0.5009
     48 O          22.3673   10.7507    0.0000 O.3     1  UNL1       -0.5032
     49 O          13.0787   -3.7261    0.0000 O.3     1  UNL1       -0.5008
     50 O          10.3585   -8.4985    0.0000 O.3     1  UNL1       -0.5008
     51 O          17.7492   -1.0326    0.0000 O.3     1  UNL1       -0.5008
     52 O          11.0032   -6.4743    0.0000 O.3     1  UNL1       -0.5032
     53 O          12.7501   -5.7479    0.0000 O.3     1  UNL1       -0.5008
     54 O          11.2567   -4.8936    0.0000 O.3     1  UNL1       -0.5032
     55 O           9.5855   -6.0780    0.0000 O.3     1  UNL1       -0.5008
     56 O          21.2133   -1.0460    0.0000 O.3     1  UNL1       -0.5032
     57 O          19.4774   -2.0393    0.0000 O.3     1  UNL1       -0.5008
     58 O          19.2940   -6.2962    0.0000 O.3     1  UNL1       -0.5032
     59 O          18.1283   -9.5583    0.0000 O.3     1  UNL1       -0.5032
     60 O           2.2588   -1.0280    0.0000 O.3     1  UNL1       -0.5032
     61 O           5.0850    0.9751    0.0000 O.3     1  UNL1       -0.5032
     62 O          19.6528   -8.2638    0.0000 O.3     1  UNL1       -0.5009
     63 O          25.5569    2.4373    0.0000 O.3     1  UNL1       -0.5032
     64 O          23.8133   -0.5560    0.0000 O.3     1  UNL1       -0.5032
     65 O           3.0937    0.7894    0.0000 O.3     1  UNL1       -0.5009
     66 O          25.5492    0.4373    0.0000 O.3     1  UNL1       -0.5009
     67 C          15.1049   -4.3098    0.0000 C.3     1  UNL1        0.1728
     68 C          14.9369   -5.2956    0.0000 C.3     1  UNL1        0.1858
     69 C           6.8126   -4.1829    0.0000 C.3     1  UNL1        0.1728
     70 C           6.9806   -3.1971    0.0000 C.3     1  UNL1        0.1858
     71 C          16.0709   -4.5686    0.0000 C.3     1  UNL1        0.1296
     72 C          21.2364    4.9540    0.0000 C.3     1  UNL1        0.1728
     73 C          21.2326    3.9540    0.0000 C.3     1  UNL1        0.1858
     74 C           7.5823   -4.8213    0.0000 C.3     1  UNL1        0.1296
     75 C          14.0783   -5.9643    0.0000 C.3     1  UNL1        0.1979
     76 C          20.3140    5.3402    0.0000 C.3     1  UNL1        0.1296
     77 C           7.9183   -2.8497    0.0000 C.3     1  UNL1        0.1979
     78 C          20.3646    3.4573    0.0000 C.3     1  UNL1        0.1979
     79 C          16.7780   -3.8615    0.0000 C.3     1  UNL1        0.1222
     80 C           7.6751   -5.8170    0.0000 C.3     1  UNL1        0.1222
     81 C          20.1873    6.3321    0.0000 C.3     1  UNL1        0.1222
     82 C          15.1049   -2.5778    0.0000 C.2     1  UNL1        0.3405
     83 C          14.2389   -2.0778    0.0000 C.ar    1  UNL1        0.0740
     84 C          14.2389   -1.0778    0.0000 C.ar    1  UNL1        0.0458
     85 C          13.6395   -5.0657    0.0000 C.2     1  UNL1        0.1645
     86 C          15.1049   -0.5778    0.0000 C.ar    1  UNL1        0.0458
     87 C           8.3358   -1.9410    0.0000 C.2     1  UNL1        0.1645
     88 C           6.6463   -6.1524    0.0000 C.2     1  UNL1        0.3405
     89 C           7.0813   -7.0572    0.0000 C.ar    1  UNL1        0.0740
     90 C          15.9710   -1.0778    0.0000 C.ar    1  UNL1        0.0740
     91 C          19.5006    3.9606    0.0000 C.2     1  UNL1        0.1645
     92 C           7.8036   -7.7546    0.0000 C.ar    1  UNL1        0.0458
     93 C          22.2961    6.3240    0.0000 C.2     1  UNL1        0.3405
     94 C           8.7233   -8.1574    0.0000 C.ar    1  UNL1        0.0458
     95 C           9.5854   -7.6475    0.0000 C.ar    1  UNL1        0.0740
     96 C          15.9710   -2.0778    0.0000 C.2     1  UNL1        0.3401
     97 C          23.2871    6.1897    0.0000 C.ar    1  UNL1        0.0740
     98 C          15.8862   -6.9177    0.0000 C.2     1  UNL1        0.3399
     99 C          13.3450   -2.6124    0.0000 C.ar    1  UNL1       -0.0009
    100 C          23.8989    6.9807    0.0000 C.ar    1  UNL1        0.0458
    101 C          13.3450   -0.5431    0.0000 C.ar    1  UNL1        0.1708
    102 C           5.4067   -2.4741    0.0000 C.2     1  UNL1        0.3399
    103 C           8.6767   -7.2301    0.0000 C.2     1  UNL1        0.3401
    104 C          23.5198    7.9060    0.0000 C.ar    1  UNL1        0.0458
    105 C          15.0889    0.4637    0.0000 C.ar    1  UNL1        0.1708
    106 C          12.4389   -2.0986    0.0000 C.ar    1  UNL1        0.1743
    107 C          13.3553   -7.5382    0.0000 C.2     1  UNL1        0.3438
    108 C          22.0928    2.4506    0.0000 C.2     1  UNL1        0.3399
    109 C           9.6257   -3.1407    0.0000 C.2     1  UNL1        0.3438
    110 C          16.8810   -0.5709    0.0000 C.ar    1  UNL1       -0.0009
    111 C          22.5288    8.0404    0.0000 C.ar    1  UNL1        0.0740
    112 C          12.4389   -1.0570    0.0000 C.ar    1  UNL1        0.2021
    113 C          21.9170    7.2494    0.0000 C.2     1  UNL1        0.3401
    114 C           8.7015   -9.1588    0.0000 C.ar    1  UNL1        0.1708
    115 C           7.5665   -8.7731    0.0000 C.ar    1  UNL1        0.1708
    116 C          16.8890    0.4707    0.0000 C.ar    1  UNL1        0.1743
    117 C           6.0717   -7.3302    0.0000 C.ar    1  UNL1       -0.0017
    118 C          19.4928    1.9606    0.0000 C.2     1  UNL1        0.3438
    119 C           9.6782   -8.6432    0.0000 C.ar    1  UNL1       -0.0009
    120 C          10.3954   -3.7791    0.0000 C.ar    1  UNL1        0.1085
    121 C          15.9869    0.9915    0.0000 C.ar    1  UNL1        0.2021
    122 C          12.3695   -7.3702    0.0000 C.ar    1  UNL1        0.1085
    123 C          16.8278   -7.2542    0.0000 C.ar    1  UNL1        0.0661
    124 C          10.4479   -9.2816    0.0000 C.ar    1  UNL1        0.1743
    125 C          19.4890    0.9607    0.0000 C.ar    1  UNL1        0.1085
    126 C          23.6671    5.2198    0.0000 C.ar    1  UNL1       -0.0017
    127 C           4.8284   -1.6582    0.0000 C.ar    1  UNL1        0.0661
    128 C          24.9331    6.8566    0.0000 C.ar    1  UNL1        0.1708
    129 C           9.5406   -9.7057    0.0000 C.ar    1  UNL1        0.2021
    130 C          11.3332   -3.4318    0.0000 C.ar    1  UNL1        0.1876
    131 C           6.5635   -9.0693    0.0000 C.ar    1  UNL1        0.2012
    132 C           5.8111   -8.3430    0.0000 C.ar    1  UNL1        0.1628
    133 C          11.5537   -7.9484    0.0000 C.ar    1  UNL1        0.1876
    134 C          22.9569    1.9473    0.0000 C.ar    1  UNL1        0.0661
    135 C          24.1697    8.7200    0.0000 C.ar    1  UNL1        0.1708
    136 C          18.6210    0.4640    0.0000 C.ar    1  UNL1        0.1876
    137 C          22.1191    8.9980    0.0000 C.ar    1  UNL1       -0.0017
    138 C          24.6981    5.0719    0.0000 C.ar    1  UNL1        0.1628
    139 C          25.3354    5.8958    0.0000 C.ar    1  UNL1        0.2012
    140 C          10.2046   -4.8031    0.0000 C.ar    1  UNL1        0.0013
    141 C          12.2888   -6.3317    0.0000 C.ar    1  UNL1        0.0013
    142 C          23.7822    9.6869    0.0000 C.ar    1  UNL1        0.2012
    143 C          12.1451   -4.0843    0.0000 C.ar    1  UNL1        0.2060
    144 C          22.7500    9.8268    0.0000 C.ar    1  UNL1        0.1628
    145 C          17.0072   -8.2380    0.0000 C.ar    1  UNL1       -0.0023
    146 C          17.5901   -6.6069    0.0000 C.ar    1  UNL1       -0.0023
    147 C          20.3531    0.4573    0.0000 C.ar    1  UNL1        0.0013
    148 C          10.6005   -7.5283    0.0000 C.ar    1  UNL1        0.2060
    149 C           5.2458   -0.7495    0.0000 C.ar    1  UNL1       -0.0023
    150 C           3.8327   -1.7511    0.0000 C.ar    1  UNL1       -0.0023
    151 C          18.6172   -0.5360    0.0000 C.ar    1  UNL1        0.2060
    152 C          22.9531    0.9473    0.0000 C.ar    1  UNL1       -0.0023
    153 C          23.8249    2.4440    0.0000 C.ar    1  UNL1       -0.0023
    154 C          11.0012   -5.4743    0.0000 C.ar    1  UNL1        0.1630
    155 C          11.9780   -5.1124    0.0000 C.ar    1  UNL1        0.2044
    156 C          11.3457   -5.8896    0.0000 C.ar    1  UNL1        0.1630
    157 C          10.4958   -6.4919    0.0000 C.ar    1  UNL1        0.2044
    158 C          20.3492   -0.5427    0.0000 C.ar    1  UNL1        0.1630
    159 C          19.4813   -1.0393    0.0000 C.ar    1  UNL1        0.2044
    160 C          18.5317   -6.9435    0.0000 C.ar    1  UNL1        0.1628
    161 C          17.9489   -8.5745    0.0000 C.ar    1  UNL1        0.1628
    162 C           3.2545   -0.9352    0.0000 C.ar    1  UNL1        0.1628
    163 C           4.6676    0.0663    0.0000 C.ar    1  UNL1        0.1628
    164 C          18.7111   -7.9272    0.0000 C.ar    1  UNL1        0.2006
    165 C          24.6890    1.9406    0.0000 C.ar    1  UNL1        0.1628
    166 C          23.8172    0.4440    0.0000 C.ar    1  UNL1        0.1628
    167 C           3.6719   -0.0265    0.0000 C.ar    1  UNL1        0.2006
    168 C          24.6851    0.9406    0.0000 C.ar    1  UNL1        0.2006
    169 H          14.2839   -4.0898    0.0000 H       1  UNL1        0.0801
    170 H          15.5481   -5.3997    0.0000 H       1  UNL1        0.0815
    171 H           5.9822   -4.0013    0.0000 H       1  UNL1        0.0801
    172 H           6.4172   -2.9383    0.0000 H       1  UNL1        0.0815
    173 H          15.6325   -5.0070    0.0000 H       1  UNL1        0.0666
    174 H          21.9414    4.4790    0.0000 H       1  UNL1        0.0801
    175 H          21.2302    3.3340    0.0000 H       1  UNL1        0.0815
    176 H           8.0268   -4.3891    0.0000 H       1  UNL1        0.0666
    177 H          13.4598   -5.9214    0.0000 H       1  UNL1        0.0851
    178 H          19.7422    5.5797    0.0000 H       1  UNL1        0.0666
    179 H           7.8608   -2.2324    0.0000 H       1  UNL1        0.0851
    180 H          19.8265    3.1494    0.0000 H       1  UNL1        0.0851
    181 H          17.2164   -4.2999    0.0000 H       1  UNL1        0.0725
    182 H          17.2164   -3.4231    0.0000 H       1  UNL1        0.0725
    183 H           7.0572   -5.7665    0.0000 H       1  UNL1        0.0725
    184 H           7.5181   -6.4168    0.0000 H       1  UNL1        0.0725
    185 H          20.1088    6.9471    0.0000 H       1  UNL1        0.0725
    186 H          19.5723    6.2536    0.0000 H       1  UNL1        0.0725
    187 H          13.9859   -4.5515    0.0000 H       1  UNL1        0.1067
    188 H          16.9286   -5.6950    0.0000 H       1  UNL1        0.2101
    189 H           8.9531   -1.8834    0.0000 H       1  UNL1        0.1067
    190 H           8.9729   -5.0872    0.0000 H       1  UNL1        0.2101
    191 H          18.9624    3.6527    0.0000 H       1  UNL1        0.1067
    192 H          18.9465    4.9740    0.0000 H       1  UNL1        0.2101
    193 H          13.3521   -3.2324    0.0000 H       1  UNL1        0.0664
    194 H          17.4143   -0.8871    0.0000 H       1  UNL1        0.0664
    195 H           5.6306   -6.8944    0.0000 H       1  UNL1        0.0664
    196 H           9.1299   -8.9326    0.0000 H       1  UNL1        0.0664
    197 H          23.2821    4.7338    0.0000 H       1  UNL1        0.0664
    198 H          21.5038    9.0742    0.0000 H       1  UNL1        0.0664
    199 H           9.6208   -5.0118    0.0000 H       1  UNL1        0.0665
    200 H          12.7988   -5.9790    0.0000 H       1  UNL1        0.0665
    201 H          16.5346   -8.6393    0.0000 H       1  UNL1        0.0663
    202 H          17.4788   -5.9970    0.0000 H       1  UNL1        0.0663
    203 H          20.8912    0.7653    0.0000 H       1  UNL1        0.0665
    204 H           5.8632   -0.6920    0.0000 H       1  UNL1        0.0663
    205 H           3.5739   -2.3145    0.0000 H       1  UNL1        0.0663
    206 H          12.8232    0.7730    0.0000 H       1  UNL1        0.2923
    207 H          22.4149    0.6394    0.0000 H       1  UNL1        0.0663
    208 H          23.8273    3.0640    0.0000 H       1  UNL1        0.0663
    209 H          14.2100    1.5736    0.0000 H       1  UNL1        0.2923
    210 H          11.5772    0.0664    0.0000 H       1  UNL1        0.2924
    211 H           7.3332   -9.9244    0.0000 H       1  UNL1        0.2923
    212 H           8.1510  -10.0626    0.0000 H       1  UNL1        0.2923
    213 H          16.5188    2.3036    0.0000 H       1  UNL1        0.2924
    214 H          26.1510    7.5785    0.0000 H       1  UNL1        0.2923
    215 H           9.9843  -11.0502    0.0000 H       1  UNL1        0.2924
    216 H           5.7302  -10.2139    0.0000 H       1  UNL1        0.2924
    217 H           4.4044   -8.1827    0.0000 H       1  UNL1        0.2923
    218 H          25.5440    9.0602    0.0000 H       1  UNL1        0.2923
    219 H          24.6925    3.6562    0.0000 H       1  UNL1        0.2923
    220 H          26.7043    6.2572    0.0000 H       1  UNL1        0.2924
    221 H          24.1642   11.0502    0.0000 H       1  UNL1        0.2924
    222 H          21.7527   10.8316    0.0000 H       1  UNL1        0.2923
    223 H          13.5605   -4.1164    0.0000 H       1  UNL1        0.2924
    224 H          10.8045   -8.9293    0.0000 H       1  UNL1        0.2924
    225 H          17.7469   -1.6526    0.0000 H       1  UNL1        0.2924
    226 H          11.5406   -6.7833    0.0000 H       1  UNL1        0.2923
    227 H          12.9678   -6.3284    0.0000 H       1  UNL1        0.2924
    228 H          10.9001   -4.3863    0.0000 H       1  UNL1        0.2923
    229 H           9.5256   -5.4609    0.0000 H       1  UNL1        0.2924
    230 H          21.7514   -0.7381    0.0000 H       1  UNL1        0.2923
    231 H          20.0132   -2.3514    0.0000 H       1  UNL1        0.2924
    232 H          19.8779   -6.5048    0.0000 H       1  UNL1        0.2923
    233 H          17.6557   -9.9596    0.0000 H       1  UNL1        0.2923
    234 H           2.0000   -1.5914    0.0000 H       1  UNL1        0.2923
    235 H           4.7265    1.4809    0.0000 H       1  UNL1        0.2923
    236 H          19.7641   -8.8737    0.0000 H       1  UNL1        0.2924
    237 H          26.0926    2.1252    0.0000 H       1  UNL1        0.2923
    238 H          24.3490   -0.8681    0.0000 H       1  UNL1        0.2923
    239 H           2.4764    0.7318    0.0000 H       1  UNL1        0.2924
    240 H          26.0873    0.7452    0.0000 H       1  UNL1        0.2924
@<TRIPOS>BOND
     1     1    67    1
     2     1    82    1
     3     2    69    1
     4     2    88    1
     5    68     3    1
     6     3    98    1
     7     4    72    1
     8     4    93    1
     9    70     5    1
    10     5   102    1
    11    73     6    1
    12     6   108    1
    13    71     7    1
    14     7   188    1
    15     8    75    1
    16     8   107    1
    17    74     9    1
    18     9   190    1
    19    10    77    1
    20    10   109    1
    21    11    79    1
    22    11    96    1
    23    76    12    1
    24    12   192    1
    25    78    13    1
    26    13   118    1
    27    14    80    1
    28    14   103    1
    29    15    81    1
    30    15   113    1
    31    16   106    1
    32    16   130    1
    33    17    82    2
    34    18   116    1
    35    18   136    1
    36    19    85    2
    37    20   124    1
    38    20   133    1
    39    21    87    2
    40    22    88    2
    41    23    91    2
    42    24   101    1
    43    24   206    1
    44    25    93    2
    45    26   105    1
    46    26   209    1
    47    27    96    2
    48    28    98    2
    49    29   112    1
    50    29   210    1
    51    30   102    2
    52    31   103    2
    53    32   114    1
    54    32   211    1
    55    33   115    1
    56    33   212    1
    57    34   107    2
    58    35   108    2
    59    36   121    1
    60    36   213    1
    61    37   109    2
    62    38   113    2
    63    39   118    2
    64    40   128    1
    65    40   214    1
    66    41   129    1
    67    41   215    1
    68    42   131    1
    69    42   216    1
    70    43   132    1
    71    43   217    1
    72    44   135    1
    73    44   218    1
    74    45   138    1
    75    45   219    1
    76    46   139    1
    77    46   220    1
    78    47   142    1
    79    47   221    1
    80    48   144    1
    81    48   222    1
    82    49   143    1
    83    49   223    1
    84    50   148    1
    85    50   224    1
    86    51   151    1
    87    51   225    1
    88    52   154    1
    89    52   226    1
    90    53   155    1
    91    53   227    1
    92    54   156    1
    93    54   228    1
    94    55   157    1
    95    55   229    1
    96    56   158    1
    97    56   230    1
    98    57   159    1
    99    57   231    1
   100    58   160    1
   101    58   232    1
   102    59   161    1
   103    59   233    1
   104    60   162    1
   105    60   234    1
   106    61   163    1
   107    61   235    1
   108    62   164    1
   109    62   236    1
   110    63   165    1
   111    63   237    1
   112    64   166    1
   113    64   238    1
   114    65   167    1
   115    65   239    1
   116    66   168    1
   117    66   240    1
   118    67    68    1
   119    67    71    1
   120    67   169    1
   121    68    75    1
   122    68   170    1
   123    69    70    1
   124    69    74    1
   125    69   171    1
   126    70    77    1
   127    70   172    1
   128    71    79    1
   129    71   173    1
   130    72    73    1
   131    72    76    1
   132    72   174    1
   133    73    78    1
   134    73   175    1
   135    74    80    1
   136    74   176    1
   137    75    85    1
   138    75   177    1
   139    76    81    1
   140    76   178    1
   141    77    87    1
   142    77   179    1
   143    78    91    1
   144    78   180    1
   145    79   181    1
   146    79   182    1
   147    80   183    1
   148    80   184    1
   149    81   185    1
   150    81   186    1
   151    82    83    1
   152    83    84   ar
   153    83    99   ar
   154    84    86    1
   155    84   101   ar
   156    85   187    1
   157    86    90   ar
   158    86   105   ar
   159    87   189    1
   160    88    89    1
   161    89    92   ar
   162    89   117   ar
   163    90    96    1
   164    90   110   ar
   165    91   191    1
   166    92    94    1
   167    92   115   ar
   168    93    97    1
   169    94    95   ar
   170    94   114   ar
   171    95   103    1
   172    95   119   ar
   173    97   100   ar
   174    97   126   ar
   175    98   123    1
   176    99   106   ar
   177    99   193    1
   178   100   104    1
   179   100   128   ar
   180   101   112   ar
   181   102   127    1
   182   104   111   ar
   183   104   135   ar
   184   105   121   ar
   185   106   112   ar
   186   107   122    1
   187   108   134    1
   188   109   120    1
   189   110   116   ar
   190   110   194    1
   191   111   113    1
   192   111   137   ar
   193   114   129   ar
   194   115   131   ar
   195   116   121   ar
   196   117   132   ar
   197   117   195    1
   198   118   125    1
   199   119   124   ar
   200   119   196    1
   201   120   130   ar
   202   120   140   ar
   203   122   133   ar
   204   122   141   ar
   205   123   145   ar
   206   123   146   ar
   207   124   129   ar
   208   125   136   ar
   209   125   147   ar
   210   126   138   ar
   211   126   197    1
   212   127   149   ar
   213   127   150   ar
   214   128   139   ar
   215   130   143   ar
   216   131   132   ar
   217   133   148   ar
   218   134   152   ar
   219   134   153   ar
   220   135   142   ar
   221   136   151   ar
   222   137   144   ar
   223   137   198    1
   224   138   139   ar
   225   140   154   ar
   226   140   199    1
   227   141   156   ar
   228   141   200    1
   229   142   144   ar
   230   143   155   ar
   231   145   161   ar
   232   145   201    1
   233   146   160   ar
   234   146   202    1
   235   147   158   ar
   236   147   203    1
   237   148   157   ar
   238   149   163   ar
   239   149   204    1
   240   150   162   ar
   241   150   205    1
   242   151   159   ar
   243   152   166   ar
   244   152   207    1
   245   153   165   ar
   246   153   208    1
   247   154   155   ar
   248   156   157   ar
   249   158   159   ar
   250   160   164   ar
   251   161   164   ar
   252   162   167   ar
   253   163   167   ar
   254   165   168   ar
   255   166   168   ar
