@<TRIPOS>MOLECULE
IMPHY010772
 40 45 0 0 0
SMALL
GASTEIGER

@<TRIPOS>ATOM
      1 O           4.4848   -3.1583    0.0000 O.3     1  UNL1       -0.4147
      2 C           5.7640   -3.4742    0.0000 C.3     1  UNL1        0.4523
      3 O           6.3325   -4.6743    0.0000 O.2     1  UNL1       -0.4118
      4 C           5.7482   -5.8429    0.0000 C.2     1  UNL1        0.1802
      5 C           4.4532   -6.1272    0.0000 C.2     1  UNL1        0.0464
      6 C           3.4268   -5.2902    0.0000 C.ar    1  UNL1        0.0712
      7 C           2.2740   -5.9377    0.0000 C.ar    1  UNL1        0.1407
      8 C           1.1370   -5.2744    0.0000 C.ar    1  UNL1        0.0512
      9 C           1.1528   -3.9479    0.0000 C.ar    1  UNL1        0.1977
     10 C           2.3056   -3.3005    0.0000 C.ar    1  UNL1        0.0790
     11 C           3.4426   -3.9795    0.0000 C.ar    1  UNL1        0.1522
     12 O           7.0904   -3.4742    0.0000 O.3     1  UNL1       -0.4147
     13 C           7.7695   -4.6112    0.0000 C.ar    1  UNL1        0.1521
     14 C           9.1118   -4.6112    0.0000 C.ar    1  UNL1        0.0739
     15 C           9.7750   -5.7797    0.0000 C.ar    1  UNL1        0.1408
     16 O          11.1015   -5.7797    0.0000 O.3     1  UNL1       -0.4749
     17 C          11.7648   -6.9325    0.0000 C.3     1  UNL1        0.1885
     18 C          11.1015   -8.0853    0.0000 C.3     1  UNL1        0.0531
     19 C           9.7750   -8.0853    0.0000 C.3     1  UNL1        0.0366
     20 C           9.1118   -6.9325    0.0000 C.ar    1  UNL1        0.0460
     21 C           7.7695   -6.9325    0.0000 C.ar    1  UNL1        0.1406
     22 C           7.0904   -5.7797    0.0000 C.ar    1  UNL1        0.0739
     23 C           6.4272   -2.3214    0.0000 C.ar    1  UNL1        0.0984
     24 C           7.7695   -2.3214    0.0000 C.ar    1  UNL1        0.0068
     25 C           8.4485   -1.1686    0.0000 C.ar    1  UNL1        0.0000
     26 C           7.7695    0.0000    0.0000 C.ar    1  UNL1       -0.0000
     27 C           6.4272    0.0000    0.0000 C.ar    1  UNL1        0.0000
     28 C           5.7640   -1.1686    0.0000 C.ar    1  UNL1        0.0068
     29 O           2.2740   -7.2484    0.0000 O.3     1  UNL1       -0.4715
     30 C           1.1212   -7.9116    0.0000 C.3     1  UNL1        0.2525
     31 C           0.0000   -5.9061    0.0000 C.3     1  UNL1        0.0376
     32 O           0.0316   -3.2689    0.0000 O.3     1  UNL1       -0.2867
     33 C          13.1229   -6.9325    0.0000 C.ar    1  UNL1        0.0172
     34 C          13.7703   -5.7797    0.0000 C.ar    1  UNL1       -0.0008
     35 C          15.1126   -5.7797    0.0000 C.ar    1  UNL1       -0.0002
     36 C          15.7916   -6.9325    0.0000 C.ar    1  UNL1       -0.0000
     37 C          15.1126   -8.0853    0.0000 C.ar    1  UNL1       -0.0002
     38 C          13.7703   -8.0853    0.0000 C.ar    1  UNL1       -0.0008
     39 O           7.0904   -8.0853    0.0000 O.3     1  UNL1       -0.4715
     40 C           5.7640   -8.0853    0.0000 C.3     1  UNL1        0.2525
@<TRIPOS>BOND
     1     1    11    1
     2     1     2    1
     3     2     3    1
     4     2    23    1
     5     2    12    1
     6     3     4    1
     7     4     5    2
     8     5     6    1
     9     6    11   ar
    10     6     7   ar
    11     7     8   ar
    12     7    29    1
    13     8     9   ar
    14     8    31    1
    15     9    10   ar
    16     9    32    1
    17    10    11   ar
    18    12    13    1
    19    13    14   ar
    20    13    22   ar
    21    14    15   ar
    22    15    16    1
    23    15    20   ar
    24    16    17    1
    25    17    18    1
    26    17    33    1
    27    18    19    1
    28    19    20    1
    29    20    21   ar
    30    21    22   ar
    31    21    39    1
    32    23    28   ar
    33    23    24   ar
    34    24    25   ar
    35    25    26   ar
    36    26    27   ar
    37    27    28   ar
    38    29    30    1
    39    33    34   ar
    40    33    38   ar
    41    34    35   ar
    42    35    36   ar
    43    36    37   ar
    44    37    38   ar
    45    39    40    1
