@<TRIPOS>MOLECULE
IMPHY003230
 70 72 0 0 0
SMALL
GASTEIGER

@<TRIPOS>ATOM
      1 O          10.3312   -0.4050    0.0000 O.3     1  UNL1       -0.3401
      2 O           8.5991   -0.4050    0.0000 O.3     1  UNL1       -0.3405
      3 O          10.3312    2.5950    0.0000 O.3     1  UNL1       -0.3661
      4 O           8.5991   -3.4050    0.0000 O.3     1  UNL1       -0.3744
      5 O           6.0010   -0.9050    0.0000 O.3     1  UNL1       -0.3461
      6 O          10.3312   -2.4050    0.0000 O.3     1  UNL1       -0.3841
      7 O          12.0632    0.5950    0.0000 O.3     1  UNL1       -0.3865
      8 O           8.5991    0.5950    0.0000 O.3     1  UNL1       -0.3866
      9 O           6.8671   -2.4050    0.0000 O.3     1  UNL1       -0.3865
     10 O           4.2690   -0.9050    0.0000 O.3     1  UNL1       -0.3461
     11 O          12.0632    3.5950    0.0000 O.3     1  UNL1       -0.3924
     12 O           4.2690    2.0950    0.0000 O.3     1  UNL1       -0.3744
     13 O           6.0010    1.0950    0.0000 O.3     1  UNL1       -0.3841
     14 O           2.5369    1.0950    0.0000 O.3     1  UNL1       -0.3869
     15 C          10.3312    0.5950    0.0000 C.3     1  UNL1        0.1182
     16 C           9.4651   -0.9050    0.0000 C.3     1  UNL1        0.1884
     17 C           9.4651   -1.9050    0.0000 C.3     1  UNL1        0.1344
     18 C           8.5991   -2.4050    0.0000 C.3     1  UNL1        0.1171
     19 C          11.1972    1.0950    0.0000 C.3     1  UNL1        0.1121
     20 C           9.4651    1.0950    0.0000 C.3     1  UNL1        0.1097
     21 C           7.7331   -1.9050    0.0000 C.3     1  UNL1        0.1122
     22 C           7.7331   -0.9050    0.0000 C.3     1  UNL1        0.1134
     23 C          11.1972    2.0950    0.0000 C.3     1  UNL1        0.1104
     24 C           9.4651    2.0950    0.0000 C.3     1  UNL1        0.0848
     25 C           6.8671   -0.4050    0.0000 C.3     1  UNL1        0.0796
     26 C          12.0632    2.5950    0.0000 C.3     1  UNL1        0.0729
     27 C           5.1350   -0.4050    0.0000 C.3     1  UNL1        0.1876
     28 C           8.5991    2.5950    0.0000 C.3     1  UNL1       -0.0361
     29 C           5.1350    0.5950    0.0000 C.3     1  UNL1        0.1343
     30 C           4.2690    1.0950    0.0000 C.3     1  UNL1        0.1168
     31 C           3.4030    0.5950    0.0000 C.3     1  UNL1        0.1072
     32 C           3.4030   -0.4050    0.0000 C.3     1  UNL1        0.0792
     33 C           7.7331   -3.9050    0.0000 C.3     1  UNL1        0.0370
     34 C           3.4030    2.5950    0.0000 C.3     1  UNL1        0.0370
     35 H           9.7942    0.2850    0.0000 H       1  UNL1        0.0651
     36 H          10.0021   -1.2150    0.0000 H       1  UNL1        0.0938
     37 H           9.4651   -2.5250    0.0000 H       1  UNL1        0.0671
     38 H           8.0622   -2.7150    0.0000 H       1  UNL1        0.0650
     39 H          11.7341    1.4050    0.0000 H       1  UNL1        0.0647
     40 H           8.9282    1.4050    0.0000 H       1  UNL1        0.0646
     41 H           7.1962   -1.5950    0.0000 H       1  UNL1        0.0647
     42 H           7.7331   -0.2850    0.0000 H       1  UNL1        0.0647
     43 H          11.1972    2.7150    0.0000 H       1  UNL1        0.0646
     44 H           9.4651    2.7150    0.0000 H       1  UNL1        0.0620
     45 H           7.2656    0.0699    0.0000 H       1  UNL1        0.0587
     46 H           6.4685    0.0699    0.0000 H       1  UNL1        0.0587
     47 H          12.2753    2.0124    0.0000 H       1  UNL1        0.0584
     48 H          12.6738    2.7027    0.0000 H       1  UNL1        0.0584
     49 H           5.6720   -0.0950    0.0000 H       1  UNL1        0.0937
     50 H           8.9091    3.1319    0.0000 H       1  UNL1        0.0255
     51 H           8.0622    2.9050    0.0000 H       1  UNL1        0.0255
     52 H           8.2891    2.0581    0.0000 H       1  UNL1        0.0255
     53 H           5.1350    1.2150    0.0000 H       1  UNL1        0.0671
     54 H           3.7320    1.4050    0.0000 H       1  UNL1        0.0650
     55 H           3.9399    0.2850    0.0000 H       1  UNL1        0.0643
     56 H          10.3312   -3.0250    0.0000 H       1  UNL1        0.2101
     57 H          12.6002    0.9050    0.0000 H       1  UNL1        0.2100
     58 H           8.0622    0.9050    0.0000 H       1  UNL1        0.2100
     59 H           6.3301   -2.0950    0.0000 H       1  UNL1        0.2100
     60 H           2.7924   -0.2973    0.0000 H       1  UNL1        0.0587
     61 H           3.1909   -0.9876    0.0000 H       1  UNL1        0.0587
     62 H           7.4231   -3.3681    0.0000 H       1  UNL1        0.0524
     63 H           7.1962   -4.2150    0.0000 H       1  UNL1        0.0524
     64 H           8.0431   -4.4419    0.0000 H       1  UNL1        0.0524
     65 H          12.6002    3.9050    0.0000 H       1  UNL1        0.2095
     66 H           6.0010    1.7150    0.0000 H       1  UNL1        0.2101
     67 H           2.0000    0.7850    0.0000 H       1  UNL1        0.2100
     68 H           3.7130    3.1319    0.0000 H       1  UNL1        0.0524
     69 H           2.8660    2.9050    0.0000 H       1  UNL1        0.0524
     70 H           3.0930    2.0581    0.0000 H       1  UNL1        0.0524
@<TRIPOS>BOND
     1     1    15    1
     2     1    16    1
     3     2    16    1
     4     2    22    1
     5     3    23    1
     6     3    24    1
     7     4    18    1
     8     4    33    1
     9     5    25    1
    10     5    27    1
    11     6    17    1
    12     6    56    1
    13     7    19    1
    14     7    57    1
    15     8    20    1
    16     8    58    1
    17     9    21    1
    18     9    59    1
    19    10    27    1
    20    10    32    1
    21    11    26    1
    22    11    65    1
    23    12    30    1
    24    12    34    1
    25    13    29    1
    26    13    66    1
    27    14    31    1
    28    14    67    1
    29    15    19    1
    30    15    20    1
    31    15    35    1
    32    16    17    1
    33    16    36    1
    34    17    18    1
    35    17    37    1
    36    18    21    1
    37    18    38    1
    38    19    23    1
    39    19    39    1
    40    20    24    1
    41    20    40    1
    42    21    22    1
    43    21    41    1
    44    22    25    1
    45    22    42    1
    46    23    26    1
    47    23    43    1
    48    24    28    1
    49    24    44    1
    50    25    45    1
    51    25    46    1
    52    26    47    1
    53    26    48    1
    54    27    29    1
    55    27    49    1
    56    28    50    1
    57    28    51    1
    58    28    52    1
    59    29    30    1
    60    29    53    1
    61    30    31    1
    62    30    54    1
    63    31    32    1
    64    31    55    1
    65    32    60    1
    66    32    61    1
    67    33    62    1
    68    33    63    1
    69    33    64    1
    70    34    68    1
    71    34    69    1
    72    34    70    1
