@<TRIPOS>MOLECULE
IMPHY008950
 85 91 0 0 0
SMALL
GASTEIGER

@<TRIPOS>ATOM
      1 O           6.4896    2.1991    0.0000 O.3     1  UNL1       -0.4482
      2 O           5.4302    4.0011    0.0000 O.3     1  UNL1       -0.4914
      3 O           8.1819    4.2561    0.0000 O.3     1  UNL1       -0.4913
      4 O           6.4498    3.2561    0.0000 O.3     1  UNL1       -0.5009
      5 O           4.8208   -4.0762    0.0000 O.3     1  UNL1       -0.4945
      6 O           4.7866   -1.0321    0.0000 O.3     1  UNL1       -0.5062
      7 N           9.0638   -0.3132    0.0000 N.3     1  UNL1       -0.2977
      8 N           2.5282    0.5323    0.0000 N.3     1  UNL1       -0.2978
      9 C           8.1658    0.2146    0.0000 C.3     1  UNL1        0.0432
     10 C           3.5032    0.5866    0.0000 C.3     1  UNL1        0.0397
     11 C           8.1819    1.2561    0.0000 C.ar    1  UNL1        0.0193
     12 C           3.9389    1.4167    0.0000 C.ar    1  UNL1       -0.0231
     13 C           9.9659    0.2076    0.0000 C.3     1  UNL1        0.0032
     14 C           9.0479    1.7561    0.0000 C.ar    1  UNL1       -0.0343
     15 C           9.9579    1.2492    0.0000 C.3     1  UNL1       -0.0143
     16 C           8.0995   -0.7205    0.0000 C.3     1  UNL1       -0.0077
     17 C           2.0000    1.3536    0.0000 C.3     1  UNL1        0.0032
     18 C           3.4298    2.2500    0.0000 C.ar    1  UNL1       -0.0378
     19 C           2.4538    2.2182    0.0000 C.3     1  UNL1       -0.0144
     20 C           3.4204   -0.3472    0.0000 C.3     1  UNL1       -0.0079
     21 C           7.3158    1.7561    0.0000 C.ar    1  UNL1        0.1784
     22 C           4.6604    2.0152    0.0000 C.ar    1  UNL1       -0.0107
     23 C           7.6785   -1.5582    0.0000 C.ar    1  UNL1       -0.0448
     24 C           9.0600   -1.3132    0.0000 C.3     1  UNL1       -0.0122
     25 C           5.5566    2.2902    0.0000 C.ar    1  UNL1        0.1703
     26 C           3.7032   -1.2410    0.0000 C.ar    1  UNL1       -0.0448
     27 C           9.0479    2.7561    0.0000 C.ar    1  UNL1       -0.0125
     28 C           3.9765    3.0899    0.0000 C.ar    1  UNL1       -0.0128
     29 C           2.0737   -0.3584    0.0000 C.3     1  UNL1       -0.0122
     30 C           7.3158    2.7561    0.0000 C.ar    1  UNL1        0.2020
     31 C           4.9786    3.1089    0.0000 C.ar    1  UNL1        0.1624
     32 C           8.1819    3.2561    0.0000 C.ar    1  UNL1        0.1653
     33 C           6.9677   -2.1694    0.0000 C.ar    1  UNL1       -0.0472
     34 C           4.3081   -1.9571    0.0000 C.ar    1  UNL1       -0.0472
     35 C           6.0765   -2.4600    0.0000 C.ar    1  UNL1        0.0273
     36 C           5.1420   -2.3855    0.0000 C.ar    1  UNL1        0.0275
     37 C           7.1482   -0.7144    0.0000 C.ar    1  UNL1       -0.0550
     38 C           3.1213   -2.0500    0.0000 C.ar    1  UNL1       -0.0550
     39 C           4.4845   -3.1344    0.0000 C.ar    1  UNL1        0.1279
     40 C           5.6302   -1.5690    0.0000 C.ar    1  UNL1        0.1247
     41 C           6.1516   -0.7197    0.0000 C.ar    1  UNL1       -0.0193
     42 C           3.5014   -2.9712    0.0000 C.ar    1  UNL1       -0.0191
     43 C           4.8833    4.8383    0.0000 C.3     1  UNL1        0.0790
     44 C           9.0479    4.7561    0.0000 C.3     1  UNL1        0.0790
     45 C           4.1733   -4.8383    0.0000 C.3     1  UNL1        0.0788
     46 H           7.3166    0.2512    0.0000 H       1  UNL1        0.0516
     47 H           4.3519    0.6339    0.0000 H       1  UNL1        0.0515
     48 H          10.1795   -0.3744    0.0000 H       1  UNL1        0.0430
     49 H          10.5759    0.3184    0.0000 H       1  UNL1        0.0430
     50 H          10.5695    1.1479    0.0000 H       1  UNL1        0.0326
     51 H          10.1624    1.8345    0.0000 H       1  UNL1        0.0326
     52 H           8.5051   -1.1894    0.0000 H       1  UNL1        0.0332
     53 H           7.5017   -0.5562    0.0000 H       1  UNL1        0.0332
     54 H           1.5084    1.7314    0.0000 H       1  UNL1        0.0430
     55 H           1.5436    0.9339    0.0000 H       1  UNL1        0.0430
     56 H           2.5400    2.8322    0.0000 H       1  UNL1        0.0326
     57 H           1.8636    2.4082    0.0000 H       1  UNL1        0.0326
     58 H           2.8706   -0.0606    0.0000 H       1  UNL1        0.0332
     59 H           4.0367   -0.2797    0.0000 H       1  UNL1        0.0332
     60 H           4.3658    2.5608    0.0000 H       1  UNL1        0.0659
     61 H           8.4400   -1.3108    0.0000 H       1  UNL1        0.0391
     62 H           9.0576   -1.9332    0.0000 H       1  UNL1        0.0391
     63 H           9.6800   -1.3156    0.0000 H       1  UNL1        0.0391
     64 H           9.5848    3.0661    0.0000 H       1  UNL1        0.0658
     65 H           3.6758    3.6321    0.0000 H       1  UNL1        0.0658
     66 H           1.5215   -0.0767    0.0000 H       1  UNL1        0.0391
     67 H           1.7920   -0.9107    0.0000 H       1  UNL1        0.0391
     68 H           2.6260   -0.6402    0.0000 H       1  UNL1        0.0391
     69 H           7.2719   -2.7096    0.0000 H       1  UNL1        0.0627
     70 H           3.9221   -2.4423    0.0000 H       1  UNL1        0.0627
     71 H           7.4466   -0.1710    0.0000 H       1  UNL1        0.0621
     72 H           2.5054   -1.9782    0.0000 H       1  UNL1        0.0621
     73 H           5.8475   -0.1794    0.0000 H       1  UNL1        0.0654
     74 H           3.1154   -3.4564    0.0000 H       1  UNL1        0.0654
     75 H           6.4498    3.8761    0.0000 H       1  UNL1        0.2924
     76 H           5.4024    5.1774    0.0000 H       1  UNL1        0.0660
     77 H           4.5442    5.3574    0.0000 H       1  UNL1        0.0660
     78 H           4.3642    4.4992    0.0000 H       1  UNL1        0.0660
     79 H           9.3579    4.2192    0.0000 H       1  UNL1        0.0660
     80 H           9.5848    5.0661    0.0000 H       1  UNL1        0.0660
     81 H           8.7379    5.2930    0.0000 H       1  UNL1        0.0660
     82 H           4.8133   -0.4127    0.0000 H       1  UNL1        0.2922
     83 H           3.7008   -4.4369    0.0000 H       1  UNL1        0.0660
     84 H           3.7718   -5.3108    0.0000 H       1  UNL1        0.0660
     85 H           4.6458   -5.2397    0.0000 H       1  UNL1        0.0660
@<TRIPOS>BOND
     1     1    21    1
     2     1    25    1
     3     2    31    1
     4     2    43    1
     5     3    32    1
     6     3    44    1
     7     4    30    1
     8     4    75    1
     9     5    39    1
    10     5    45    1
    11     6    40    1
    12     6    82    1
    13     7     9    1
    14     7    13    1
    15     7    24    1
    16     8    10    1
    17     8    17    1
    18     8    29    1
    19     9    11    1
    20     9    16    1
    21     9    46    1
    22    10    12    1
    23    10    20    1
    24    10    47    1
    25    11    14   ar
    26    11    21   ar
    27    12    18   ar
    28    12    22   ar
    29    13    15    1
    30    13    48    1
    31    13    49    1
    32    14    15    1
    33    14    27   ar
    34    15    50    1
    35    15    51    1
    36    16    23    1
    37    16    52    1
    38    16    53    1
    39    17    19    1
    40    17    54    1
    41    17    55    1
    42    18    19    1
    43    18    28   ar
    44    19    56    1
    45    19    57    1
    46    20    26    1
    47    20    58    1
    48    20    59    1
    49    21    30   ar
    50    22    25   ar
    51    22    60    1
    52    23    33   ar
    53    23    37   ar
    54    24    61    1
    55    24    62    1
    56    24    63    1
    57    25    31   ar
    58    26    34   ar
    59    26    38   ar
    60    27    32   ar
    61    27    64    1
    62    28    31   ar
    63    28    65    1
    64    29    66    1
    65    29    67    1
    66    29    68    1
    67    30    32   ar
    68    33    35   ar
    69    33    69    1
    70    34    36   ar
    71    34    70    1
    72    35    36    1
    73    35    40   ar
    74    36    39   ar
    75    37    41   ar
    76    37    71    1
    77    38    42   ar
    78    38    72    1
    79    39    42   ar
    80    40    41   ar
    81    41    73    1
    82    42    74    1
    83    43    76    1
    84    43    77    1
    85    43    78    1
    86    44    79    1
    87    44    80    1
    88    44    81    1
    89    45    83    1
    90    45    84    1
    91    45    85    1
