@<TRIPOS>MOLECULE
IMPHY016798
 23 23 0 0 0
SMALL
GASTEIGER

@<TRIPOS>ATOM
      1 O           2.0000    2.5000    0.0000 O.2     1  UNL1       -0.2924
      2 C           2.8660   -1.0000    0.0000 C.ar    1  UNL1       -0.0476
      3 C           2.8660   -2.0000    0.0000 C.3     1  UNL1       -0.0305
      4 C           2.8660    1.0000    0.0000 C.ar    1  UNL1        0.0171
      5 C           3.7320   -0.5000    0.0000 C.ar    1  UNL1       -0.0579
      6 C           2.0000   -0.5000    0.0000 C.ar    1  UNL1       -0.0579
      7 C           3.7320    0.5000    0.0000 C.ar    1  UNL1       -0.0510
      8 C           2.0000    0.5000    0.0000 C.ar    1  UNL1       -0.0510
      9 C           2.0000   -2.5000    0.0000 C.3     1  UNL1       -0.0613
     10 C           2.8660    2.0000    0.0000 C.2     1  UNL1        0.1601
     11 C           3.7320    2.5000    0.0000 C.3     1  UNL1       -0.0014
     12 H           3.0781   -2.5826    0.0000 H       1  UNL1        0.0311
     13 H           3.4766   -1.8923    0.0000 H       1  UNL1        0.0311
     14 H           4.2690   -0.8100    0.0000 H       1  UNL1        0.0620
     15 H           1.4631   -0.8100    0.0000 H       1  UNL1        0.0620
     16 H           4.2690    0.8100    0.0000 H       1  UNL1        0.0625
     17 H           1.4631    0.8100    0.0000 H       1  UNL1        0.0625
     18 H           1.6900   -1.9631    0.0000 H       1  UNL1        0.0233
     19 H           1.4631   -2.8100    0.0000 H       1  UNL1        0.0233
     20 H           2.3100   -3.0369    0.0000 H       1  UNL1        0.0233
     21 H           4.0420    1.9631    0.0000 H       1  UNL1        0.0309
     22 H           4.2690    2.8100    0.0000 H       1  UNL1        0.0309
     23 H           3.4220    3.0369    0.0000 H       1  UNL1        0.0309
@<TRIPOS>BOND
     1     1    10    2
     2     2     3    1
     3     2     5   ar
     4     2     6   ar
     5     3     9    1
     6     3    12    1
     7     3    13    1
     8     4     7   ar
     9     4     8   ar
    10     4    10    1
    11     5     7   ar
    12     5    14    1
    13     6     8   ar
    14     6    15    1
    15     7    16    1
    16     8    17    1
    17     9    18    1
    18     9    19    1
    19     9    20    1
    20    10    11    1
    21    11    21    1
    22    11    22    1
    23    11    23    1
