@<TRIPOS>MOLECULE
IMPHY015827
 28 27 0 0 0
SMALL
GASTEIGER

@<TRIPOS>ATOM
      1 O           5.4641   -1.2500    0.0000 O.2     1  UNL1       -0.2974
      2 O           8.9282   -0.2500    0.0000 O.3     1  UNL1       -0.4679
      3 O           8.0622    1.2500    0.0000 O.2     1  UNL1       -0.2509
      4 C           3.7320   -0.2500    0.0000 C.3     1  UNL1       -0.0466
      5 C           4.5981    0.2500    0.0000 C.3     1  UNL1        0.0058
      6 C           2.8660    0.2500    0.0000 C.3     1  UNL1       -0.0555
      7 C           6.3301    0.2500    0.0000 C.3     1  UNL1        0.0159
      8 C           5.4641   -0.2500    0.0000 C.2     1  UNL1        0.1339
      9 C           7.1962   -0.2500    0.0000 C.3     1  UNL1        0.0516
     10 C           2.0000   -0.2500    0.0000 C.3     1  UNL1       -0.0653
     11 C           8.0622    0.2500    0.0000 C.2     1  UNL1        0.3072
     12 C           9.7942    0.2500    0.0000 C.3     1  UNL1        0.0817
     13 H           3.3335   -0.7249    0.0000 H       1  UNL1        0.0269
     14 H           4.1306   -0.7249    0.0000 H       1  UNL1        0.0269
     15 H           4.9966    0.7249    0.0000 H       1  UNL1        0.0342
     16 H           4.1996    0.7249    0.0000 H       1  UNL1        0.0342
     17 H           3.2646    0.7249    0.0000 H       1  UNL1        0.0263
     18 H           2.4675    0.7249    0.0000 H       1  UNL1        0.0263
     19 H           6.7287    0.7249    0.0000 H       1  UNL1        0.0347
     20 H           5.9316    0.7249    0.0000 H       1  UNL1        0.0347
     21 H           6.7976   -0.7249    0.0000 H       1  UNL1        0.0382
     22 H           7.5947   -0.7249    0.0000 H       1  UNL1        0.0382
     23 H           1.6900    0.2869    0.0000 H       1  UNL1        0.0230
     24 H           1.4631   -0.5600    0.0000 H       1  UNL1        0.0230
     25 H           2.3100   -0.7869    0.0000 H       1  UNL1        0.0230
     26 H          10.1042   -0.2869    0.0000 H       1  UNL1        0.0661
     27 H          10.3312    0.5600    0.0000 H       1  UNL1        0.0661
     28 H           9.4842    0.7869    0.0000 H       1  UNL1        0.0661
@<TRIPOS>BOND
     1     1     8    2
     2     2    11    1
     3     2    12    1
     4     3    11    2
     5     4     5    1
     6     4     6    1
     7     4    13    1
     8     4    14    1
     9     5     8    1
    10     5    15    1
    11     5    16    1
    12     6    10    1
    13     6    17    1
    14     6    18    1
    15     7     8    1
    16     7     9    1
    17     7    19    1
    18     7    20    1
    19     9    11    1
    20     9    21    1
    21     9    22    1
    22    10    23    1
    23    10    24    1
    24    10    25    1
    25    12    26    1
    26    12    27    1
    27    12    28    1
