@<TRIPOS>MOLECULE
IMPHY008046
 47 49 0 0 0
SMALL
GASTEIGER

@<TRIPOS>ATOM
      1 O           6.3580   -1.4984    0.0000 O.2     1  UNL1       -0.4618
      2 O          10.7205    2.0704    0.0000 O.3     1  UNL1       -0.4880
      3 O           2.8660    0.5362    0.0000 O.3     1  UNL1       -0.4885
      4 O           4.5981    1.5362    0.0000 O.3     1  UNL1       -0.5027
      5 O           6.3465    1.5708    0.0000 O.2     1  UNL1       -0.2863
      6 O           2.8660   -1.4638    0.0000 O.3     1  UNL1       -0.5031
      7 C           5.4641    0.0362    0.0000 C.ar    1  UNL1        0.1097
      8 C           7.2641    0.0571    0.0000 C.ar    1  UNL1        0.0644
      9 C           5.4641   -0.9638    0.0000 C.ar    1  UNL1        0.1456
     10 C           6.3580    0.5709    0.0000 C.ar    1  UNL1        0.2038
     11 C           8.1282    0.5604    0.0000 C.ar    1  UNL1       -0.0110
     12 C           4.5981    0.5362    0.0000 C.ar    1  UNL1        0.1768
     13 C           3.7320    0.0362    0.0000 C.ar    1  UNL1        0.2040
     14 C           7.2641   -0.9846    0.0000 C.ar    1  UNL1        0.1038
     15 C           4.5981   -1.4638    0.0000 C.ar    1  UNL1        0.0267
     16 C           3.7320   -0.9638    0.0000 C.ar    1  UNL1        0.1657
     17 C           8.9962    0.0637    0.0000 C.ar    1  UNL1       -0.0504
     18 C           8.1244    1.5604    0.0000 C.ar    1  UNL1       -0.0504
     19 C           9.8564    1.5671    0.0000 C.ar    1  UNL1        0.1210
     20 C           9.8602    0.5671    0.0000 C.ar    1  UNL1       -0.0193
     21 C           8.9884    2.0637    0.0000 C.ar    1  UNL1       -0.0193
     22 C          11.5884    1.5737    0.0000 C.3     1  UNL1        0.1080
     23 C          12.4525    2.0771    0.0000 C.2     1  UNL1       -0.0484
     24 C          13.3205    1.5804    0.0000 C.2     1  UNL1       -0.0765
     25 C           2.0000    0.0362    0.0000 C.3     1  UNL1        0.0791
     26 C          14.1846    2.0838    0.0000 C.3     1  UNL1       -0.0439
     27 C          13.3243    0.5804    0.0000 C.3     1  UNL1       -0.0439
     28 H           7.7998   -1.2966    0.0000 H       1  UNL1        0.1037
     29 H           4.5981   -2.0838    0.0000 H       1  UNL1        0.0692
     30 H           8.9985   -0.5563    0.0000 H       1  UNL1        0.0625
     31 H           7.5862    1.8683    0.0000 H       1  UNL1        0.0625
     32 H          10.3984    0.2591    0.0000 H       1  UNL1        0.0654
     33 H           8.9860    2.6837    0.0000 H       1  UNL1        0.0654
     34 H          11.1917    1.0973    0.0000 H       1  UNL1        0.0742
     35 H          11.9888    1.1003    0.0000 H       1  UNL1        0.0742
     36 H           4.0611    1.8462    0.0000 H       1  UNL1        0.2923
     37 H          12.4501    2.6971    0.0000 H       1  UNL1        0.0605
     38 H           2.8660   -2.0838    0.0000 H       1  UNL1        0.2923
     39 H           1.6900    0.5732    0.0000 H       1  UNL1        0.0660
     40 H           1.4631   -0.2738    0.0000 H       1  UNL1        0.0660
     41 H           2.3100   -0.5007    0.0000 H       1  UNL1        0.0660
     42 H          14.4966    1.5480    0.0000 H       1  UNL1        0.0274
     43 H          12.7043    0.5780    0.0000 H       1  UNL1        0.0274
     44 H          13.3267   -0.0396    0.0000 H       1  UNL1        0.0274
     45 H          13.9443    0.5828    0.0000 H       1  UNL1        0.0274
     46 H          14.7203    2.3958    0.0000 H       1  UNL1        0.0274
     47 H          13.8725    2.6195    0.0000 H       1  UNL1        0.0274
@<TRIPOS>BOND
     1     1     9   ar
     2     1    14   ar
     3     2    19    1
     4     2    22    1
     5     3    13    1
     6     3    25    1
     7     4    12    1
     8     4    36    1
     9     5    10    2
    10     6    16    1
    11     6    38    1
    12     7     9   ar
    13     7    10   ar
    14     7    12   ar
    15     8    10   ar
    16     8    11    1
    17     8    14   ar
    18     9    15   ar
    19    11    17   ar
    20    11    18   ar
    21    12    13   ar
    22    13    16   ar
    23    14    28    1
    24    15    16   ar
    25    15    29    1
    26    17    20   ar
    27    17    30    1
    28    18    21   ar
    29    18    31    1
    30    19    20   ar
    31    19    21   ar
    32    20    32    1
    33    21    33    1
    34    22    23    1
    35    22    34    1
    36    22    35    1
    37    23    24    2
    38    23    37    1
    39    24    26    1
    40    24    27    1
    41    25    39    1
    42    25    40    1
    43    25    41    1
    44    26    42    1
    45    26    46    1
    46    26    47    1
    47    27    43    1
    48    27    44    1
    49    27    45    1
