@<TRIPOS>MOLECULE
IMPHY002729
 82 87 0 0 0
SMALL
GASTEIGER

@<TRIPOS>ATOM
      1 O           6.9357   -1.5019    0.0000 O.3     1  UNL1       -0.3289
      2 O           8.2960    1.2617    0.0000 O.3     1  UNL1       -0.4512
      3 O           7.5038   -1.3962    0.0000 O.3     1  UNL1       -0.4513
      4 O           9.4704   -0.6673    0.0000 O.3     1  UNL1       -0.3818
      5 O           8.4445   -2.3416    0.0000 O.3     1  UNL1       -0.4287
      6 O           4.6912    0.2957    0.0000 O.3     1  UNL1       -0.4584
      7 O           8.9032    2.7276    0.0000 O.2     1  UNL1       -0.2449
      8 O           7.5038   -3.1282    0.0000 O.2     1  UNL1       -0.2449
      9 O           9.9445   -1.4755    0.0000 O.2     1  UNL1       -0.2449
     10 O           3.4323    1.2617    0.0000 O.2     1  UNL1       -0.2449
     11 O           5.1680    4.6075    0.0000 O.3     1  UNL1       -0.5028
     12 O           5.7272    4.7573    0.0000 O.3     1  UNL1       -0.5028
     13 O           8.5259    5.3724    0.0000 O.3     1  UNL1       -0.5032
     14 O           6.5474    5.9025    0.0000 O.3     1  UNL1       -0.5009
     15 O           3.8851    5.1891    0.0000 O.3     1  UNL1       -0.5009
     16 O           2.4367    3.7408    0.0000 O.3     1  UNL1       -0.5032
     17 O           3.5922   -2.8636    0.0000 O.3     1  UNL1       -0.5032
     18 O           5.8190   -5.5174    0.0000 O.3     1  UNL1       -0.5032
     19 O           3.9395   -4.8332    0.0000 O.3     1  UNL1       -0.5009
     20 O           9.4445   -5.8057    0.0000 O.3     1  UNL1       -0.5032
     21 O          12.4445   -4.0736    0.0000 O.3     1  UNL1       -0.5032
     22 O          11.4445   -5.8057    0.0000 O.3     1  UNL1       -0.5009
     23 C           7.3301   -0.4114    0.0000 C.3     1  UNL1        0.1719
     24 C           8.0372    0.2957    0.0000 C.3     1  UNL1        0.1741
     25 C           6.3642   -0.6702    0.0000 C.3     1  UNL1        0.1371
     26 C           8.4718   -0.6151    0.0000 C.3     1  UNL1        0.1576
     27 C           7.9445   -1.4755    0.0000 C.3     1  UNL1        0.2352
     28 C           5.3982   -0.4114    0.0000 C.3     1  UNL1        0.1226
     29 C           8.0372    2.2276    0.0000 C.2     1  UNL1        0.3405
     30 C           7.0038   -2.2622    0.0000 C.2     1  UNL1        0.3399
     31 C           7.3301    2.9347    0.0000 C.ar    1  UNL1        0.0740
     32 C           9.4445   -2.3416    0.0000 C.2     1  UNL1        0.3417
     33 C           4.4323    1.2617    0.0000 C.2     1  UNL1        0.3401
     34 C           6.3642    3.1935    0.0000 C.ar    1  UNL1        0.0458
     35 C           4.6912    2.2276    0.0000 C.ar    1  UNL1        0.0740
     36 C           5.3982    2.9347    0.0000 C.ar    1  UNL1        0.0458
     37 C           6.2377   -2.9049    0.0000 C.ar    1  UNL1        0.0661
     38 C           8.0779    3.6598    0.0000 C.ar    1  UNL1       -0.0017
     39 C           9.9445   -3.2076    0.0000 C.ar    1  UNL1        0.0662
     40 C           6.0791    4.1954    0.0000 C.ar    1  UNL1        0.1708
     41 C           5.1442    3.9449    0.0000 C.ar    1  UNL1        0.1708
     42 C           3.6810    2.4816    0.0000 C.ar    1  UNL1       -0.0017
     43 C           7.8161    4.6680    0.0000 C.ar    1  UNL1        0.1628
     44 C           6.8100    4.9376    0.0000 C.ar    1  UNL1        0.2012
     45 C           6.4114   -3.8898    0.0000 C.ar    1  UNL1       -0.0023
     46 C           5.2980   -2.5629    0.0000 C.ar    1  UNL1       -0.0023
     47 C           4.1402    4.2222    0.0000 C.ar    1  UNL1        0.2012
     48 C           3.4036    3.4857    0.0000 C.ar    1  UNL1        0.1628
     49 C          10.9445   -3.2076    0.0000 C.ar    1  UNL1       -0.0023
     50 C           9.4445   -4.0736    0.0000 C.ar    1  UNL1       -0.0023
     51 C           4.5319   -3.2057    0.0000 C.ar    1  UNL1        0.1628
     52 C           5.6453   -4.5326    0.0000 C.ar    1  UNL1        0.1628
     53 C           4.7056   -4.1905    0.0000 C.ar    1  UNL1        0.2006
     54 C           9.9445   -4.9396    0.0000 C.ar    1  UNL1        0.1628
     55 C          11.4445   -4.0736    0.0000 C.ar    1  UNL1        0.1628
     56 C          10.9445   -4.9396    0.0000 C.ar    1  UNL1        0.2006
     57 H           7.9214   -0.5978    0.0000 H       1  UNL1        0.0800
     58 H           7.3011    0.7207    0.0000 H       1  UNL1        0.0801
     59 H           5.8736   -1.3643    0.0000 H       1  UNL1        0.0670
     60 H           8.8162   -0.0995    0.0000 H       1  UNL1        0.0695
     61 H           7.6416   -2.0165    0.0000 H       1  UNL1        0.1086
     62 H           4.8363   -0.6734    0.0000 H       1  UNL1        0.0725
     63 H           5.7082    0.1256    0.0000 H       1  UNL1        0.0725
     64 H           9.8080   -0.1473    0.0000 H       1  UNL1        0.2102
     65 H           8.6749    3.4924    0.0000 H       1  UNL1        0.0664
     66 H           3.2477    2.0382    0.0000 H       1  UNL1        0.0664
     67 H           6.9940   -4.1018    0.0000 H       1  UNL1        0.0663
     68 H           5.1903   -1.9523    0.0000 H       1  UNL1        0.0663
     69 H          11.2545   -2.6707    0.0000 H       1  UNL1        0.0663
     70 H           8.8245   -4.0736    0.0000 H       1  UNL1        0.0663
     71 H           4.8995    5.1663    0.0000 H       1  UNL1        0.2923
     72 H           5.6803    5.3756    0.0000 H       1  UNL1        0.2923
     73 H           9.1242    5.2096    0.0000 H       1  UNL1        0.2923
     74 H           6.9841    6.3426    0.0000 H       1  UNL1        0.2924
     75 H           3.2868    5.3519    0.0000 H       1  UNL1        0.2924
     76 H           2.0000    3.3007    0.0000 H       1  UNL1        0.2923
     77 H           3.1173   -3.2622    0.0000 H       1  UNL1        0.2923
     78 H           6.4017   -5.7294    0.0000 H       1  UNL1        0.2923
     79 H           4.0472   -5.4439    0.0000 H       1  UNL1        0.2924
     80 H           9.7545   -6.3426    0.0000 H       1  UNL1        0.2923
     81 H          12.7545   -3.5367    0.0000 H       1  UNL1        0.2923
     82 H          12.0645   -5.8057    0.0000 H       1  UNL1        0.2924
@<TRIPOS>BOND
     1     1    25    1
     2     1    27    1
     3     2    24    1
     4     2    29    1
     5    23     3    1
     6     3    30    1
     7    26     4    1
     8     4    64    1
     9    27     5    1
    10     5    32    1
    11     6    28    1
    12     6    33    1
    13     7    29    2
    14     8    30    2
    15     9    32    2
    16    10    33    2
    17    11    40    1
    18    11    71    1
    19    12    41    1
    20    12    72    1
    21    13    43    1
    22    13    73    1
    23    14    44    1
    24    14    74    1
    25    15    47    1
    26    15    75    1
    27    16    48    1
    28    16    76    1
    29    17    51    1
    30    17    77    1
    31    18    52    1
    32    18    78    1
    33    19    53    1
    34    19    79    1
    35    20    54    1
    36    20    80    1
    37    21    55    1
    38    21    81    1
    39    22    56    1
    40    22    82    1
    41    23    24    1
    42    23    25    1
    43    23    57    1
    44    24    26    1
    45    24    58    1
    46    25    28    1
    47    25    59    1
    48    26    27    1
    49    26    60    1
    50    27    61    1
    51    28    62    1
    52    28    63    1
    53    29    31    1
    54    30    37    1
    55    31    34   ar
    56    31    38   ar
    57    32    39    1
    58    33    35    1
    59    34    36    1
    60    34    40   ar
    61    35    36   ar
    62    35    42   ar
    63    36    41   ar
    64    37    45   ar
    65    37    46   ar
    66    38    43   ar
    67    38    65    1
    68    39    49   ar
    69    39    50   ar
    70    40    44   ar
    71    41    47   ar
    72    42    48   ar
    73    42    66    1
    74    43    44   ar
    75    45    52   ar
    76    45    67    1
    77    46    51   ar
    78    46    68    1
    79    47    48   ar
    80    49    55   ar
    81    49    69    1
    82    50    54   ar
    83    50    70    1
    84    51    53   ar
    85    52    53   ar
    86    54    56   ar
    87    55    56   ar
