@<TRIPOS>MOLECULE
IMPHY006139
 21 21 0 0 0
SMALL
GASTEIGER

@<TRIPOS>ATOM
      1 O           2.5369    1.5950    0.0000 O.3     1  UNL1       -0.5032
      2 O           6.0010    1.5950    0.0000 O.3     1  UNL1       -0.5032
      3 O           3.4030   -1.9050    0.0000 O.3     1  UNL1       -0.4644
      4 O           4.2690    2.5950    0.0000 O.3     1  UNL1       -0.5009
      5 O           5.1350   -1.9050    0.0000 O.2     1  UNL1       -0.2450
      6 C           4.2690   -0.4050    0.0000 C.ar    1  UNL1        0.0661
      7 C           5.1350    0.0950    0.0000 C.ar    1  UNL1       -0.0023
      8 C           3.4030    0.0950    0.0000 C.ar    1  UNL1       -0.0023
      9 C           3.4030    1.0950    0.0000 C.ar    1  UNL1        0.1628
     10 C           5.1350    1.0950    0.0000 C.ar    1  UNL1        0.1628
     11 C           4.2690    1.5950    0.0000 C.ar    1  UNL1        0.2006
     12 C           4.2690   -1.4050    0.0000 C.2     1  UNL1        0.3392
     13 C           3.4030   -2.9050    0.0000 C.3     1  UNL1        0.0820
     14 H           5.6720   -0.2150    0.0000 H       1  UNL1        0.0663
     15 H           2.8660   -0.2150    0.0000 H       1  UNL1        0.0663
     16 H           2.0000    1.2850    0.0000 H       1  UNL1        0.2923
     17 H           6.5380    1.2850    0.0000 H       1  UNL1        0.2923
     18 H           4.8059    2.9050    0.0000 H       1  UNL1        0.2924
     19 H           2.7830   -2.9050    0.0000 H       1  UNL1        0.0661
     20 H           3.4030   -3.5250    0.0000 H       1  UNL1        0.0661
     21 H           4.0230   -2.9050    0.0000 H       1  UNL1        0.0661
@<TRIPOS>BOND
     1     1     9    1
     2     1    16    1
     3     2    10    1
     4     2    17    1
     5     3    12    1
     6     3    13    1
     7     4    11    1
     8     4    18    1
     9     5    12    2
    10     6     7   ar
    11     6     8   ar
    12     6    12    1
    13     7    10   ar
    14     7    14    1
    15     8     9   ar
    16     8    15    1
    17     9    11   ar
    18    10    11   ar
    19    13    19    1
    20    13    20    1
    21    13    21    1
