@<TRIPOS>MOLECULE
IMPHY012508
 139 140 0 0 0
SMALL
GASTEIGER

@<TRIPOS>ATOM
      1 O           4.0010   10.2750    0.0000 O.3     1  UNL1       -0.3402
      2 O           2.2690   10.2750    0.0000 O.3     1  UNL1       -0.3431
      3 O           4.8671    7.7750    0.0000 O.3     1  UNL1       -0.3432
      4 O          10.5390    3.3100    0.0000 O.3     2  UNL2       -0.3431
      5 O          12.2711    3.3100    0.0000 O.3     2  UNL2       -0.3454
      6 O           2.2690    9.2750    0.0000 O.3     1  UNL1       -0.3864
      7 O           4.0010   12.2750    0.0000 O.3     1  UNL1       -0.3841
      8 O           2.2690   13.2750    0.0000 O.3     1  UNL1       -0.3864
      9 O           0.5369   12.2750    0.0000 O.3     1  UNL1       -0.3866
     10 O           2.2690    7.2750    0.0000 O.3     1  UNL1       -0.3841
     11 O           4.0010    6.2750    0.0000 O.3     1  UNL1       -0.3649
     12 O          12.2711    1.3100    0.0000 O.3     2  UNL2       -0.3841
     13 O          10.5390    0.3100    0.0000 O.3     2  UNL2       -0.3864
     14 O           8.8070    1.3100    0.0000 O.3     2  UNL2       -0.3866
     15 O          12.8318   16.2400    0.0000 O.3     3  UNL3       -0.3407
     16 O          14.5638   18.2400    0.0000 O.3     3  UNL3       -0.3865
     17 O          12.8318   19.2400    0.0000 O.3     3  UNL3       -0.3864
     18 O          11.0997   18.2400    0.0000 O.3     3  UNL3       -0.3841
     19 O          11.0997   16.2400    0.0000 O.3     3  UNL3       -0.3649
     20 O          14.5638   15.2400    0.0000 O.3     3  UNL3       -0.3924
     21 O          14.8691   10.8100    0.0000 O.3     2  UNL2       -0.3912
     22 O          17.4672   12.3100    0.0000 O.3     2  UNL2       -0.4806
     23 O          15.7352   12.3100    0.0000 O.2     2  UNL2       -0.2509
     24 C           4.0010    9.2750    0.0000 C.3     1  UNL1        0.1160
     25 C           3.1350    8.7750    0.0000 C.3     1  UNL1        0.1143
     26 C           3.1350   10.7750    0.0000 C.3     1  UNL1        0.1883
     27 C           3.1350   11.7750    0.0000 C.3     1  UNL1        0.1341
     28 C           4.8671    8.7750    0.0000 C.3     1  UNL1        0.0877
     29 C           2.2690   12.2750    0.0000 C.3     1  UNL1        0.1140
     30 C           1.4030   11.7750    0.0000 C.3     1  UNL1        0.1095
     31 C           3.1350    7.7750    0.0000 C.3     1  UNL1        0.1339
     32 C           1.4030   10.7750    0.0000 C.3     1  UNL1        0.0873
     33 C           4.0010    7.2750    0.0000 C.3     1  UNL1        0.1853
     34 C          11.4050    1.8100    0.0000 C.3     2  UNL2        0.1341
     35 C          10.5390    1.3100    0.0000 C.3     2  UNL2        0.1140
     36 C          11.4050    2.8100    0.0000 C.3     2  UNL2        0.1881
     37 C           9.6730    1.8100    0.0000 C.3     2  UNL2        0.1095
     38 C           9.6730    2.8100    0.0000 C.3     2  UNL2        0.0873
     39 C           5.7331    9.2750    0.0000 C.3     1  UNL1       -0.0361
     40 C          12.2711    4.3100    0.0000 C.3     2  UNL2        0.0618
     41 C           0.5369   10.2750    0.0000 C.3     1  UNL1       -0.0361
     42 C          13.1371    4.8100    0.0000 C.3     2  UNL2       -0.0265
     43 C          11.4050    4.8100    0.0000 C.3     2  UNL2       -0.0265
     44 C          13.1371    5.8100    0.0000 C.3     2  UNL2       -0.0507
     45 C           8.8070    3.3100    0.0000 C.3     2  UNL2       -0.0361
     46 C          11.4050    5.8100    0.0000 C.3     2  UNL2       -0.0507
     47 C          14.0031    6.3100    0.0000 C.3     2  UNL2       -0.0530
     48 C          14.0031    7.3100    0.0000 C.3     2  UNL2       -0.0531
     49 C          10.5390    6.3100    0.0000 C.3     2  UNL2       -0.0532
     50 C          13.6978   17.7400    0.0000 C.3     3  UNL3        0.1119
     51 C          12.8318   18.2400    0.0000 C.3     3  UNL3        0.1141
     52 C          14.8691    7.8100    0.0000 C.3     2  UNL2       -0.0530
     53 C          13.6978   16.7400    0.0000 C.3     3  UNL3        0.1130
     54 C          11.9658   17.7400    0.0000 C.3     3  UNL3        0.1339
     55 C          11.9658   16.7400    0.0000 C.3     3  UNL3        0.1854
     56 C          10.5390    7.3100    0.0000 C.3     2  UNL2       -0.0559
     57 C          14.8691    8.8100    0.0000 C.3     2  UNL2       -0.0507
     58 C          15.7352    9.3100    0.0000 C.3     2  UNL2       -0.0263
     59 C          14.5638   16.2400    0.0000 C.3     3  UNL3        0.0730
     60 C           9.6730    7.8100    0.0000 C.3     2  UNL2       -0.0653
     61 C          15.7352   10.3100    0.0000 C.3     2  UNL2        0.0653
     62 C          16.6012   10.8100    0.0000 C.3     2  UNL2        0.0707
     63 C          16.6012   11.8100    0.0000 C.2     2  UNL2        0.3072
     64 H           4.5380    9.5850    0.0000 H       1  UNL1        0.0650
     65 H           3.1350    9.3950    0.0000 H       1  UNL1        0.0648
     66 H           3.1350   10.1550    0.0000 H       1  UNL1        0.0938
     67 H           3.1350   12.3950    0.0000 H       1  UNL1        0.0671
     68 H           5.4040    8.4650    0.0000 H       1  UNL1        0.0621
     69 H           1.7320   12.5850    0.0000 H       1  UNL1        0.0648
     70 H           1.4030   12.3950    0.0000 H       1  UNL1        0.0646
     71 H           2.5981    8.0850    0.0000 H       1  UNL1        0.0671
     72 H           1.4030   10.1550    0.0000 H       1  UNL1        0.0621
     73 H           3.4641    6.9650    0.0000 H       1  UNL1        0.0935
     74 H          11.4050    1.1900    0.0000 H       2  UNL2        0.0671
     75 H          10.0021    1.0000    0.0000 H       2  UNL2        0.0648
     76 H          11.4050    3.4300    0.0000 H       2  UNL2        0.0937
     77 H           9.6730    1.1900    0.0000 H       2  UNL2        0.0646
     78 H           9.6730    3.4300    0.0000 H       2  UNL2        0.0621
     79 H           6.0431    8.7381    0.0000 H       1  UNL1        0.0255
     80 H           6.2700    9.5850    0.0000 H       1  UNL1        0.0255
     81 H           5.4231    9.8119    0.0000 H       1  UNL1        0.0255
     82 H          12.8080    4.0000    0.0000 H       2  UNL2        0.0597
     83 H           0.2269   10.8119    0.0000 H       1  UNL1        0.0255
     84 H           0.0000    9.9650    0.0000 H       1  UNL1        0.0255
     85 H           0.8469    9.7381    0.0000 H       1  UNL1        0.0255
     86 H          13.3491    4.2274    0.0000 H       2  UNL2        0.0290
     87 H          13.7477    4.9177    0.0000 H       2  UNL2        0.0290
     88 H          10.7945    4.9177    0.0000 H       2  UNL2        0.0290
     89 H          11.1930    4.2274    0.0000 H       2  UNL2        0.0290
     90 H           1.7320    8.9650    0.0000 H       1  UNL1        0.2100
     91 H           4.0010   12.8950    0.0000 H       1  UNL1        0.2101
     92 H          12.9250    6.3926    0.0000 H       2  UNL2        0.0266
     93 H          12.5265    5.7023    0.0000 H       2  UNL2        0.0266
     94 H           1.7320   13.5850    0.0000 H       1  UNL1        0.2100
     95 H           0.0000   11.9650    0.0000 H       1  UNL1        0.2100
     96 H           2.2690    6.6550    0.0000 H       1  UNL1        0.2101
     97 H           9.1170    3.8469    0.0000 H       2  UNL2        0.0255
     98 H           8.2700    3.6200    0.0000 H       2  UNL2        0.0255
     99 H           8.4970    2.7731    0.0000 H       2  UNL2        0.0255
    100 H          12.0156    5.7023    0.0000 H       2  UNL2        0.0266
    101 H          11.6171    6.3926    0.0000 H       2  UNL2        0.0266
    102 H          14.2152    5.7274    0.0000 H       2  UNL2        0.0265
    103 H          14.6137    6.4177    0.0000 H       2  UNL2        0.0265
    104 H           4.5380    5.9650    0.0000 H       1  UNL1        0.2126
    105 H          13.7911    7.8926    0.0000 H       2  UNL2        0.0265
    106 H          13.3925    7.2023    0.0000 H       2  UNL2        0.0265
    107 H          12.8080    1.6200    0.0000 H       2  UNL2        0.2101
    108 H          10.0021    0.0000    0.0000 H       2  UNL2        0.2100
    109 H           9.9284    6.4177    0.0000 H       2  UNL2        0.0265
    110 H          10.3270    5.7274    0.0000 H       2  UNL2        0.0265
    111 H           8.2700    1.6200    0.0000 H       2  UNL2        0.2100
    112 H          14.2348   17.4300    0.0000 H       3  UNL3        0.0647
    113 H          13.3687   18.5500    0.0000 H       3  UNL3        0.0648
    114 H          13.6978   16.1200    0.0000 H       3  UNL3        0.0647
    115 H          15.0812    7.2274    0.0000 H       2  UNL2        0.0265
    116 H          15.4797    7.9177    0.0000 H       2  UNL2        0.0265
    117 H          11.9658   18.3600    0.0000 H       3  UNL3        0.0671
    118 H          11.4288   17.0500    0.0000 H       3  UNL3        0.0935
    119 H          11.1496    7.2023    0.0000 H       2  UNL2        0.0263
    120 H          10.7511    7.8926    0.0000 H       2  UNL2        0.0263
    121 H          14.6571    9.3926    0.0000 H       2  UNL2        0.0266
    122 H          14.2586    8.7023    0.0000 H       2  UNL2        0.0266
    123 H          15.9472    8.7274    0.0000 H       2  UNL2        0.0290
    124 H          16.3457    9.4177    0.0000 H       2  UNL2        0.0290
    125 H          15.1744   16.1323    0.0000 H       3  UNL3        0.0584
    126 H          14.7759   16.8226    0.0000 H       3  UNL3        0.0584
    127 H           9.9830    8.3469    0.0000 H       2  UNL2        0.0230
    128 H           9.1360    8.1200    0.0000 H       2  UNL2        0.0230
    129 H           9.3630    7.2731    0.0000 H       2  UNL2        0.0230
    130 H          15.7352   10.9300    0.0000 H       2  UNL2        0.0598
    131 H          15.1008   17.9300    0.0000 H       3  UNL3        0.2100
    132 H          12.2949   19.5500    0.0000 H       3  UNL3        0.2100
    133 H          10.5628   17.9300    0.0000 H       3  UNL3        0.2101
    134 H          11.0997   15.6200    0.0000 H       3  UNL3        0.2126
    135 H          16.8132   10.2274    0.0000 H       2  UNL2        0.0403
    136 H          17.2118   10.9177    0.0000 H       2  UNL2        0.0403
    137 H          15.1008   14.9300    0.0000 H       3  UNL3        0.2095
    138 H          14.8691   11.4300    0.0000 H       2  UNL2        0.2098
    139 H          17.4672   12.9300    0.0000 H       2  UNL2        0.2951
@<TRIPOS>BOND
     1     1    24    1
     2     1    26    1
     3     2    26    1
     4     2    32    1
     5     3    28    1
     6     3    33    1
     7     4    36    1
     8     4    38    1
     9     5    36    1
    10     5    40    1
    11     6    25    1
    12     6    90    1
    13     7    27    1
    14     7    91    1
    15     8    29    1
    16     8    94    1
    17     9    30    1
    18     9    95    1
    19    10    31    1
    20    10    96    1
    21    11    33    1
    22    11   104    1
    23    12    34    1
    24    12   107    1
    25    13    35    1
    26    13   108    1
    27    14    37    1
    28    14   111    1
    29    15    53    1
    30    15    55    1
    31    16    50    1
    32    16   131    1
    33    17    51    1
    34    17   132    1
    35    18    54    1
    36    18   133    1
    37    19    55    1
    38    19   134    1
    39    20    59    1
    40    20   137    1
    41    21    61    1
    42    21   138    1
    43    22    63    1
    44    22   139    1
    45    23    63    2
    46    24    25    1
    47    24    28    1
    48    24    64    1
    49    25    31    1
    50    25    65    1
    51    26    27    1
    52    26    66    1
    53    27    29    1
    54    27    67    1
    55    28    39    1
    56    28    68    1
    57    29    30    1
    58    29    69    1
    59    30    32    1
    60    30    70    1
    61    31    33    1
    62    31    71    1
    63    32    41    1
    64    32    72    1
    65    33    73    1
    66    34    35    1
    67    34    36    1
    68    34    74    1
    69    35    37    1
    70    35    75    1
    71    36    76    1
    72    37    38    1
    73    37    77    1
    74    38    45    1
    75    38    78    1
    76    39    79    1
    77    39    80    1
    78    39    81    1
    79    40    42    1
    80    40    43    1
    81    40    82    1
    82    41    83    1
    83    41    84    1
    84    41    85    1
    85    42    44    1
    86    42    86    1
    87    42    87    1
    88    43    46    1
    89    43    88    1
    90    43    89    1
    91    44    47    1
    92    44    92    1
    93    44    93    1
    94    45    97    1
    95    45    98    1
    96    45    99    1
    97    46    49    1
    98    46   100    1
    99    46   101    1
   100    47    48    1
   101    47   102    1
   102    47   103    1
   103    48    52    1
   104    48   105    1
   105    48   106    1
   106    49    56    1
   107    49   109    1
   108    49   110    1
   109    50    51    1
   110    50    53    1
   111    50   112    1
   112    51    54    1
   113    51   113    1
   114    52    57    1
   115    52   115    1
   116    52   116    1
   117    53    59    1
   118    53   114    1
   119    54    55    1
   120    54   117    1
   121    55   118    1
   122    56    60    1
   123    56   119    1
   124    56   120    1
   125    57    58    1
   126    57   121    1
   127    57   122    1
   128    58    61    1
   129    58   123    1
   130    58   124    1
   131    59   125    1
   132    59   126    1
   133    60   127    1
   134    60   128    1
   135    60   129    1
   136    61    62    1
   137    61   130    1
   138    62    63    1
   139    62   135    1
   140    62   136    1
