@<TRIPOS>MOLECULE
IMPHY017457
 51 50 0 0 0
SMALL
GASTEIGER

@<TRIPOS>ATOM
      1 O          12.3923    0.7500    0.0000 O.3     1  UNL1       -0.4600
      2 O          13.2583   -0.7500    0.0000 O.2     1  UNL1       -0.2482
      3 O          14.9904    0.2500    0.0000 O.3     1  UNL1       -0.3718
      4 C           8.0622    0.2500    0.0000 C.3     1  UNL1       -0.0531
      5 C           7.1962    0.7500    0.0000 C.3     1  UNL1       -0.0531
      6 C           8.9282    0.7500    0.0000 C.3     1  UNL1       -0.0529
      7 C           6.3301    0.2500    0.0000 C.3     1  UNL1       -0.0531
      8 C           9.7942    0.2500    0.0000 C.3     1  UNL1       -0.0497
      9 C           5.4641    0.7500    0.0000 C.3     1  UNL1       -0.0531
     10 C          10.6603    0.7500    0.0000 C.3     1  UNL1       -0.0159
     11 C           4.5981    0.2500    0.0000 C.3     1  UNL1       -0.0531
     12 C          11.5263    0.2500    0.0000 C.3     1  UNL1        0.1004
     13 C           3.7320    0.7500    0.0000 C.3     1  UNL1       -0.0533
     14 C           2.8660    0.2500    0.0000 C.3     1  UNL1       -0.0559
     15 C          11.5263   -0.7500    0.0000 C.3     1  UNL1       -0.0277
     16 C           2.0000    0.7500    0.0000 C.3     1  UNL1       -0.0653
     17 C          13.2583    0.2500    0.0000 C.2     1  UNL1        0.3334
     18 C          14.1244    0.7500    0.0000 C.3     1  UNL1        0.1441
     19 C          15.8564    0.7500    0.0000 C.3     1  UNL1        0.0372
     20 H           7.6636   -0.2249    0.0000 H       1  UNL1        0.0265
     21 H           8.4607   -0.2249    0.0000 H       1  UNL1        0.0265
     22 H           7.5947    1.2250    0.0000 H       1  UNL1        0.0265
     23 H           6.7976    1.2250    0.0000 H       1  UNL1        0.0265
     24 H           9.3267    1.2250    0.0000 H       1  UNL1        0.0265
     25 H           8.5297    1.2250    0.0000 H       1  UNL1        0.0265
     26 H           5.9316   -0.2249    0.0000 H       1  UNL1        0.0265
     27 H           6.7287   -0.2249    0.0000 H       1  UNL1        0.0265
     28 H           9.3957   -0.2249    0.0000 H       1  UNL1        0.0266
     29 H          10.1928   -0.2249    0.0000 H       1  UNL1        0.0266
     30 H           5.8626    1.2250    0.0000 H       1  UNL1        0.0265
     31 H           5.0656    1.2250    0.0000 H       1  UNL1        0.0265
     32 H          11.0588    1.2250    0.0000 H       1  UNL1        0.0301
     33 H          10.2617    1.2250    0.0000 H       1  UNL1        0.0301
     34 H           4.1996   -0.2249    0.0000 H       1  UNL1        0.0265
     35 H           4.9966   -0.2249    0.0000 H       1  UNL1        0.0265
     36 H          12.0632   -0.0600    0.0000 H       1  UNL1        0.0731
     37 H           4.1306    1.2250    0.0000 H       1  UNL1        0.0265
     38 H           3.3335    1.2250    0.0000 H       1  UNL1        0.0265
     39 H           2.4675   -0.2249    0.0000 H       1  UNL1        0.0263
     40 H           3.2646   -0.2249    0.0000 H       1  UNL1        0.0263
     41 H          10.9063   -0.7500    0.0000 H       1  UNL1        0.0265
     42 H          11.5263   -1.3700    0.0000 H       1  UNL1        0.0265
     43 H          12.1463   -0.7500    0.0000 H       1  UNL1        0.0265
     44 H           2.3100    1.2869    0.0000 H       1  UNL1        0.0230
     45 H           1.4631    1.0600    0.0000 H       1  UNL1        0.0230
     46 H           1.6900    0.2131    0.0000 H       1  UNL1        0.0230
     47 H          14.5229    1.2250    0.0000 H       1  UNL1        0.0676
     48 H          13.7258    1.2250    0.0000 H       1  UNL1        0.0676
     49 H          16.1664    0.2131    0.0000 H       1  UNL1        0.0524
     50 H          16.3933    1.0600    0.0000 H       1  UNL1        0.0524
     51 H          15.5464    1.2869    0.0000 H       1  UNL1        0.0524
@<TRIPOS>BOND
     1     1    12    1
     2     1    17    1
     3     2    17    2
     4     3    18    1
     5     3    19    1
     6     4     5    1
     7     4     6    1
     8     4    20    1
     9     4    21    1
    10     5     7    1
    11     5    22    1
    12     5    23    1
    13     6     8    1
    14     6    24    1
    15     6    25    1
    16     7     9    1
    17     7    26    1
    18     7    27    1
    19     8    10    1
    20     8    28    1
    21     8    29    1
    22     9    11    1
    23     9    30    1
    24     9    31    1
    25    10    12    1
    26    10    32    1
    27    10    33    1
    28    11    13    1
    29    11    34    1
    30    11    35    1
    31    12    15    1
    32    12    36    1
    33    13    14    1
    34    13    37    1
    35    13    38    1
    36    14    16    1
    37    14    39    1
    38    14    40    1
    39    15    41    1
    40    15    42    1
    41    15    43    1
    42    16    44    1
    43    16    45    1
    44    16    46    1
    45    17    18    1
    46    18    47    1
    47    18    48    1
    48    19    49    1
    49    19    50    1
    50    19    51    1
