@<TRIPOS>MOLECULE
IMPHY013718
 53 55 0 0 0
SMALL
GASTEIGER

@<TRIPOS>ATOM
      1 O           6.0682   -2.2327    0.0000 O.3     1  UNL1       -0.4908
      2 O           8.6663   -1.7327    0.0000 O.3     1  UNL1       -0.5061
      3 O           4.3198    0.8019    0.0000 O.3     1  UNL1       -0.4946
      4 O          10.3984    1.2673    0.0000 O.3     1  UNL1       -0.4947
      5 O           2.5381   -2.2568    0.0000 O.3     1  UNL1       -0.5065
      6 C           6.9343   -0.7327    0.0000 C.3     1  UNL1        0.0260
      7 C           6.0682   -0.2327    0.0000 C.3     1  UNL1       -0.0107
      8 C           6.9343   -1.7327    0.0000 C.3     1  UNL1        0.0968
      9 C           7.8003   -0.2327    0.0000 C.ar    1  UNL1        0.0012
     10 C           5.2022   -0.7327    0.0000 C.ar    1  UNL1        0.0367
     11 C           5.2022   -1.7327    0.0000 C.ar    1  UNL1        0.1306
     12 C           8.6663   -0.7327    0.0000 C.ar    1  UNL1        0.1273
     13 C           7.8003    0.7673    0.0000 C.ar    1  UNL1       -0.0513
     14 C           4.3083   -0.1980    0.0000 C.ar    1  UNL1        0.1302
     15 C           9.5323   -0.2327    0.0000 C.ar    1  UNL1        0.0396
     16 C           4.3083   -2.2673    0.0000 C.ar    1  UNL1        0.0220
     17 C           9.5323    0.7673    0.0000 C.ar    1  UNL1        0.1270
     18 C           8.6663    1.2673    0.0000 C.ar    1  UNL1       -0.0192
     19 C          10.3984   -0.7327    0.0000 C.3     1  UNL1       -0.0023
     20 C           3.4022   -0.7119    0.0000 C.ar    1  UNL1        0.0220
     21 C           3.4022   -1.7535    0.0000 C.ar    1  UNL1        0.1238
     22 C          11.2644   -0.2327    0.0000 C.2     1  UNL1       -0.0807
     23 C          12.1304   -0.7327    0.0000 C.2     1  UNL1       -0.0793
     24 C           3.4597    1.3119    0.0000 C.3     1  UNL1        0.0788
     25 C          10.3984    2.2673    0.0000 C.3     1  UNL1        0.0788
     26 C          12.9965   -0.2327    0.0000 C.3     1  UNL1       -0.0440
     27 C          12.1304   -1.7327    0.0000 C.3     1  UNL1       -0.0440
     28 H           6.9343   -0.1127    0.0000 H       1  UNL1        0.0386
     29 H           6.4668    0.2423    0.0000 H       1  UNL1        0.0322
     30 H           5.6697    0.2423    0.0000 H       1  UNL1        0.0322
     31 H           7.1463   -2.3153    0.0000 H       1  UNL1        0.0703
     32 H           7.5449   -1.6250    0.0000 H       1  UNL1        0.0703
     33 H           7.2634    1.0773    0.0000 H       1  UNL1        0.0623
     34 H           4.3154   -2.8873    0.0000 H       1  UNL1        0.0691
     35 H           8.6663    1.8873    0.0000 H       1  UNL1        0.0654
     36 H           9.9998   -1.2076    0.0000 H       1  UNL1        0.0358
     37 H          10.7969   -1.2076    0.0000 H       1  UNL1        0.0358
     38 H           2.8665   -0.3998    0.0000 H       1  UNL1        0.0691
     39 H           9.2033   -2.0427    0.0000 H       1  UNL1        0.2922
     40 H          11.2644    0.3873    0.0000 H       1  UNL1        0.0575
     41 H           3.7758    1.8452    0.0000 H       1  UNL1        0.0660
     42 H           2.9263    1.6281    0.0000 H       1  UNL1        0.0660
     43 H           3.1435    0.7786    0.0000 H       1  UNL1        0.0660
     44 H           2.0000   -1.9489    0.0000 H       1  UNL1        0.2921
     45 H          11.0184    2.2673    0.0000 H       1  UNL1        0.0660
     46 H          10.3984    2.8873    0.0000 H       1  UNL1        0.0660
     47 H           9.7784    2.2673    0.0000 H       1  UNL1        0.0660
     48 H          13.3065   -0.7696    0.0000 H       1  UNL1        0.0274
     49 H          13.5334    0.0773    0.0000 H       1  UNL1        0.0274
     50 H          12.6865    0.3043    0.0000 H       1  UNL1        0.0274
     51 H          11.5104   -1.7327    0.0000 H       1  UNL1        0.0274
     52 H          12.1304   -2.3527    0.0000 H       1  UNL1        0.0274
     53 H          12.7504   -1.7327    0.0000 H       1  UNL1        0.0274
@<TRIPOS>BOND
     1     1     8    1
     2     1    11    1
     3     2    12    1
     4     2    39    1
     5     3    14    1
     6     3    24    1
     7     4    17    1
     8     4    25    1
     9     5    21    1
    10     5    44    1
    11     6     7    1
    12     6     8    1
    13     6     9    1
    14     6    28    1
    15     7    10    1
    16     7    29    1
    17     7    30    1
    18     8    31    1
    19     8    32    1
    20     9    12   ar
    21     9    13   ar
    22    10    11   ar
    23    10    14   ar
    24    11    16   ar
    25    12    15   ar
    26    13    18   ar
    27    13    33    1
    28    14    20   ar
    29    15    17   ar
    30    15    19    1
    31    16    21   ar
    32    16    34    1
    33    17    18   ar
    34    18    35    1
    35    19    22    1
    36    19    36    1
    37    19    37    1
    38    20    21   ar
    39    20    38    1
    40    22    23    2
    41    22    40    1
    42    23    26    1
    43    23    27    1
    44    24    41    1
    45    24    42    1
    46    24    43    1
    47    25    45    1
    48    25    46    1
    49    25    47    1
    50    26    48    1
    51    26    49    1
    52    26    50    1
    53    27    51    1
    54    27    52    1
    55    27    53    1
