@<TRIPOS>MOLECULE
IMPHY017058
 24 24 0 0 0
SMALL
GASTEIGER

@<TRIPOS>ATOM
      1 O           2.8090   -0.4897    0.0000 O.2     1  UNL1       -0.4675
      2 C           4.7770   -1.1890    0.0000 C.3     1  UNL1       -0.0399
      3 C           4.5691   -0.2109    0.0000 C.3     1  UNL1        0.0081
      4 C           3.6180    0.0981    0.0000 C.ar    1  UNL1        0.1080
      5 C           5.7281   -1.4981    0.0000 C.3     1  UNL1       -0.0623
      6 C           4.0339   -1.8582    0.0000 C.3     1  UNL1       -0.0623
      7 C           3.3090    1.0492    0.0000 C.ar    1  UNL1       -0.0096
      8 C           2.3090    1.0492    0.0000 C.ar    1  UNL1       -0.0207
      9 C           3.8968    1.8582    0.0000 C.3     1  UNL1       -0.0365
     10 C           2.0000    0.0981    0.0000 C.ar    1  UNL1        0.0923
     11 H           5.2378   -0.7742    0.0000 H       1  UNL1        0.0300
     12 H           5.1887   -0.1893    0.0000 H       1  UNL1        0.0346
     13 H           4.6554    0.4031    0.0000 H       1  UNL1        0.0346
     14 H           5.5365   -2.0877    0.0000 H       1  UNL1        0.0232
     15 H           6.3177   -1.6897    0.0000 H       1  UNL1        0.0232
     16 H           5.9196   -0.9084    0.0000 H       1  UNL1        0.0232
     17 H           3.6190   -1.3974    0.0000 H       1  UNL1        0.0232
     18 H           3.5731   -2.2730    0.0000 H       1  UNL1        0.0232
     19 H           4.4487   -2.3189    0.0000 H       1  UNL1        0.0232
     20 H           1.9446    1.5508    0.0000 H       1  UNL1        0.0652
     21 H           4.3984    1.4938    0.0000 H       1  UNL1        0.0279
     22 H           4.2612    2.3598    0.0000 H       1  UNL1        0.0279
     23 H           3.3952    2.2226    0.0000 H       1  UNL1        0.0279
     24 H           1.4103   -0.0935    0.0000 H       1  UNL1        0.1029
@<TRIPOS>BOND
     1     1     4   ar
     2     1    10   ar
     3     2     3    1
     4     2     5    1
     5     2     6    1
     6     2    11    1
     7     3     4    1
     8     3    12    1
     9     3    13    1
    10     4     7   ar
    11     5    14    1
    12     5    15    1
    13     5    16    1
    14     6    17    1
    15     6    18    1
    16     6    19    1
    17     7     8   ar
    18     7     9    1
    19     8    10   ar
    20     8    20    1
    21     9    21    1
    22     9    22    1
    23     9    23    1
    24    10    24    1
