@<TRIPOS>MOLECULE
IMPHY004415
 38 40 0 0 0
SMALL
GASTEIGER

@<TRIPOS>ATOM
      1 O           6.3981   -0.2704    0.0000 O.2     1  UNL1       -0.4507
      2 O           8.1301    1.7296    0.0000 O.3     1  UNL1       -0.5007
      3 O           2.8680   -0.2945    0.0000 O.3     1  UNL1       -0.4949
      4 O           4.6497    2.7642    0.0000 O.3     1  UNL1       -0.5058
      5 O           6.3981    2.7296    0.0000 O.2     1  UNL1       -0.2830
      6 O          10.7282   -1.7704    0.0000 O.3     1  UNL1       -0.4915
      7 O           8.9962   -2.7704    0.0000 O.3     1  UNL1       -0.5033
      8 C           5.5320    1.2296    0.0000 C.ar    1  UNL1        0.1092
      9 C           5.5320    0.2296    0.0000 C.ar    1  UNL1        0.1465
     10 C           7.2641    0.2296    0.0000 C.ar    1  UNL1        0.1807
     11 C           8.1301   -0.2704    0.0000 C.ar    1  UNL1        0.0247
     12 C           7.2641    1.2296    0.0000 C.ar    1  UNL1        0.2082
     13 C           6.3981    1.7296    0.0000 C.ar    1  UNL1        0.2379
     14 C           4.6381    1.7643    0.0000 C.ar    1  UNL1        0.1348
     15 C           4.6381   -0.3051    0.0000 C.ar    1  UNL1        0.0233
     16 C           3.7320    0.2088    0.0000 C.ar    1  UNL1        0.1271
     17 C           3.7320    1.2504    0.0000 C.ar    1  UNL1        0.0225
     18 C           8.1301   -1.2704    0.0000 C.ar    1  UNL1       -0.0057
     19 C           8.9962    0.2296    0.0000 C.ar    1  UNL1       -0.0473
     20 C           8.9962   -1.7704    0.0000 C.ar    1  UNL1        0.1591
     21 C           9.8622   -1.2704    0.0000 C.ar    1  UNL1        0.1613
     22 C           9.8622   -0.2704    0.0000 C.ar    1  UNL1       -0.0156
     23 C           2.0000    0.2021    0.0000 C.3     1  UNL1        0.0788
     24 C          11.5942   -1.2704    0.0000 C.3     1  UNL1        0.0790
     25 H           4.6453   -0.9250    0.0000 H       1  UNL1        0.0691
     26 H           3.1963    1.5625    0.0000 H       1  UNL1        0.0691
     27 H           7.5932   -1.5804    0.0000 H       1  UNL1        0.0662
     28 H           8.9962    0.8496    0.0000 H       1  UNL1        0.0626
     29 H          10.3991    0.0396    0.0000 H       1  UNL1        0.0655
     30 H           8.1301    2.3496    0.0000 H       1  UNL1        0.2924
     31 H           4.1164    3.0804    0.0000 H       1  UNL1        0.2922
     32 H           8.4592   -3.0804    0.0000 H       1  UNL1        0.2923
     33 H           2.3079    0.7402    0.0000 H       1  UNL1        0.0660
     34 H           1.4619    0.5100    0.0000 H       1  UNL1        0.0660
     35 H           1.6921   -0.3360    0.0000 H       1  UNL1        0.0660
     36 H          11.9042   -1.8073    0.0000 H       1  UNL1        0.0660
     37 H          12.1312   -0.9604    0.0000 H       1  UNL1        0.0660
     38 H          11.2842   -0.7335    0.0000 H       1  UNL1        0.0660
@<TRIPOS>BOND
     1     1     9   ar
     2     1    10   ar
     3     2    12    1
     4     2    30    1
     5     3    16    1
     6     3    23    1
     7     4    14    1
     8     4    31    1
     9     5    13    2
    10     6    21    1
    11     6    24    1
    12     7    20    1
    13     7    32    1
    14     8     9   ar
    15     8    13   ar
    16     8    14   ar
    17     9    15   ar
    18    10    11    1
    19    10    12   ar
    20    11    18   ar
    21    11    19   ar
    22    12    13   ar
    23    14    17   ar
    24    15    16   ar
    25    15    25    1
    26    16    17   ar
    27    17    26    1
    28    18    20   ar
    29    18    27    1
    30    19    22   ar
    31    19    28    1
    32    20    21   ar
    33    21    22   ar
    34    22    29    1
    35    23    33    1
    36    23    34    1
    37    23    35    1
    38    24    36    1
    39    24    37    1
    40    24    38    1
