@<TRIPOS>MOLECULE
IMPHY000198
 75 79 0 0 0
SMALL
GASTEIGER

@<TRIPOS>ATOM
      1 O          10.7664    2.0654    0.0000 O.3     1  UNL1       -0.4914
      2 O          12.5403    1.0413    0.0000 O.3     1  UNL1       -0.4914
      3 O           2.8698    0.5281    0.0000 O.3     1  UNL1       -0.4914
      4 O           2.8544    2.5280    0.0000 O.3     1  UNL1       -0.4914
      5 N           9.0223   -2.0038    0.0000 N.3     1  UNL1       -0.2948
      6 N           7.2641    1.0411    0.0000 N.3     1  UNL1       -0.3090
      7 C           7.2223   -0.9830    0.0000 C.3     1  UNL1       -0.0336
      8 C           7.2223   -2.0246    0.0000 C.3     1  UNL1       -0.0255
      9 C           9.0223   -1.0038    0.0000 C.3     1  UNL1        0.0363
     10 C           8.1283   -0.4692    0.0000 C.3     1  UNL1       -0.0300
     11 C           8.1283   -2.5385    0.0000 C.3     1  UNL1        0.0026
     12 C           6.3582   -0.4797    0.0000 C.3     1  UNL1       -0.0302
     13 C           9.8883   -2.5038    0.0000 C.3     1  UNL1        0.0035
     14 C           6.3582   -2.5280    0.0000 C.3     1  UNL1       -0.0516
     15 C           9.8883   -0.5038    0.0000 C.ar    1  UNL1       -0.0234
     16 C           6.3620    0.5203    0.0000 C.3     1  UNL1        0.0335
     17 C          10.7543   -2.0038    0.0000 C.3     1  UNL1       -0.0144
     18 C          10.7543   -1.0038    0.0000 C.ar    1  UNL1       -0.0378
     19 C           5.4640    1.0481    0.0000 C.ar    1  UNL1       -0.0236
     20 C           6.3620   -3.5280    0.0000 C.3     1  UNL1       -0.0650
     21 C           9.8722    0.5377    0.0000 C.ar    1  UNL1       -0.0114
     22 C           7.2561    2.0827    0.0000 C.3     1  UNL1        0.0004
     23 C          11.6643   -0.4970    0.0000 C.ar    1  UNL1       -0.0128
     24 C           5.4563    2.0480    0.0000 C.ar    1  UNL1       -0.0378
     25 C           6.3461    2.5896    0.0000 C.3     1  UNL1       -0.0147
     26 C          10.7703    1.0654    0.0000 C.ar    1  UNL1        0.1618
     27 C          11.6724    0.5446    0.0000 C.ar    1  UNL1        0.1618
     28 C           4.6018    0.5414    0.0000 C.ar    1  UNL1       -0.0114
     29 C           4.5864    2.5414    0.0000 C.ar    1  UNL1       -0.0128
     30 C           3.7320    1.0347    0.0000 C.ar    1  UNL1        0.1618
     31 C           3.7243    2.0347    0.0000 C.ar    1  UNL1        0.1618
     32 C          11.6305    2.5688    0.0000 C.3     1  UNL1        0.0790
     33 C          13.4044    0.5379    0.0000 C.3     1  UNL1        0.0790
     34 C           2.0000    1.0214    0.0000 C.3     1  UNL1        0.0790
     35 C           2.8467    3.5280    0.0000 C.3     1  UNL1        0.0790
     36 H           7.2259   -0.3630    0.0000 H       1  UNL1        0.0305
     37 H           6.6847   -1.7157    0.0000 H       1  UNL1        0.0316
     38 H           9.0288   -0.1539    0.0000 H       1  UNL1        0.0512
     39 H           8.5329    0.0006    0.0000 H       1  UNL1        0.0286
     40 H           7.7347    0.0099    0.0000 H       1  UNL1        0.0286
     41 H           7.7347   -3.0175    0.0000 H       1  UNL1        0.0429
     42 H           8.5329   -3.0083    0.0000 H       1  UNL1        0.0429
     43 H           5.7480   -0.3697    0.0000 H       1  UNL1        0.0286
     44 H           6.1439   -1.0615    0.0000 H       1  UNL1        0.0286
     45 H           9.4898   -2.9788    0.0000 H       1  UNL1        0.0430
     46 H          10.2868   -2.9788    0.0000 H       1  UNL1        0.0430
     47 H           6.1439   -1.9462    0.0000 H       1  UNL1        0.0266
     48 H           5.7480   -2.6380    0.0000 H       1  UNL1        0.0266
     49 H           6.8984    0.2093    0.0000 H       1  UNL1        0.0510
     50 H          10.9664   -2.5864    0.0000 H       1  UNL1        0.0326
     51 H          11.3649   -1.8962    0.0000 H       1  UNL1        0.0326
     52 H           7.8022    0.7332    0.0000 H       1  UNL1        0.1225
     53 H           5.7420   -3.5304    0.0000 H       1  UNL1        0.0230
     54 H           6.3644   -4.1480    0.0000 H       1  UNL1        0.0230
     55 H           6.9820   -3.5256    0.0000 H       1  UNL1        0.0230
     56 H           9.3318    0.8415    0.0000 H       1  UNL1        0.0659
     57 H           7.8677    1.9814    0.0000 H       1  UNL1        0.0427
     58 H           7.4606    2.6680    0.0000 H       1  UNL1        0.0427
     59 H          12.1976   -0.8132    0.0000 H       1  UNL1        0.0658
     60 H           6.7360    3.0716    0.0000 H       1  UNL1        0.0326
     61 H           5.9379    3.0562    0.0000 H       1  UNL1        0.0326
     62 H           4.6066   -0.0786    0.0000 H       1  UNL1        0.0659
     63 H           4.5817    3.1613    0.0000 H       1  UNL1        0.0658
     64 H          11.9426    2.0330    0.0000 H       1  UNL1        0.0660
     65 H          12.1663    2.8808    0.0000 H       1  UNL1        0.0660
     66 H          11.3185    3.1045    0.0000 H       1  UNL1        0.0660
     67 H          13.0923    0.0022    0.0000 H       1  UNL1        0.0660
     68 H          13.9401    0.2259    0.0000 H       1  UNL1        0.0660
     69 H          13.7165    1.0737    0.0000 H       1  UNL1        0.0660
     70 H           2.3058    1.5607    0.0000 H       1  UNL1        0.0660
     71 H           1.4607    1.3272    0.0000 H       1  UNL1        0.0660
     72 H           1.6942    0.4821    0.0000 H       1  UNL1        0.0660
     73 H           3.4667    3.5328    0.0000 H       1  UNL1        0.0660
     74 H           2.8420    4.1480    0.0000 H       1  UNL1        0.0660
     75 H           2.2268    3.5232    0.0000 H       1  UNL1        0.0660
@<TRIPOS>BOND
     1     1    26    1
     2     1    32    1
     3     2    27    1
     4     2    33    1
     5     3    30    1
     6     3    34    1
     7     4    31    1
     8     4    35    1
     9     5     9    1
    10     5    11    1
    11     5    13    1
    12     6    16    1
    13     6    22    1
    14     6    52    1
    15     7     8    1
    16     7    10    1
    17     7    12    1
    18     7    36    1
    19     8    11    1
    20     8    14    1
    21     8    37    1
    22     9    10    1
    23     9    15    1
    24     9    38    1
    25    10    39    1
    26    10    40    1
    27    11    41    1
    28    11    42    1
    29    16    12    1
    30    12    43    1
    31    12    44    1
    32    13    17    1
    33    13    45    1
    34    13    46    1
    35    14    20    1
    36    14    47    1
    37    14    48    1
    38    15    18   ar
    39    15    21   ar
    40    16    19    1
    41    16    49    1
    42    17    18    1
    43    17    50    1
    44    17    51    1
    45    18    23   ar
    46    19    24   ar
    47    19    28   ar
    48    20    53    1
    49    20    54    1
    50    20    55    1
    51    21    26   ar
    52    21    56    1
    53    22    25    1
    54    22    57    1
    55    22    58    1
    56    23    27   ar
    57    23    59    1
    58    24    25    1
    59    24    29   ar
    60    25    60    1
    61    25    61    1
    62    26    27   ar
    63    28    30   ar
    64    28    62    1
    65    29    31   ar
    66    29    63    1
    67    30    31   ar
    68    32    64    1
    69    32    65    1
    70    32    66    1
    71    33    67    1
    72    33    68    1
    73    33    69    1
    74    34    70    1
    75    34    71    1
    76    34    72    1
    77    35    73    1
    78    35    74    1
    79    35    75    1
