@<TRIPOS>MOLECULE
IMPHY012639
 26 28 0 0 0
SMALL
GASTEIGER

@<TRIPOS>ATOM
      1 O           7.3424   -1.3047    0.0000 O.3     1  UNL1       -0.4526
      2 O           7.3424    0.3048    0.0000 O.3     1  UNL1       -0.4526
      3 O           3.7817    1.5346    0.0000 O.2     1  UNL1       -0.2904
      4 N           2.8641   -1.0208    0.0000 N.3     1  UNL1       -0.3029
      5 C           2.8641    0.0208    0.0000 C.3     1  UNL1        0.0686
      6 C           4.6641   -1.0000    0.0000 C.ar    1  UNL1       -0.0194
      7 C           4.6641    0.0000    0.0000 C.ar    1  UNL1        0.0271
      8 C           3.7702   -1.5346    0.0000 C.3     1  UNL1        0.0227
      9 C           3.7702    0.5347    0.0000 C.2     1  UNL1        0.1801
     10 C           5.5301   -1.5000    0.0000 C.ar    1  UNL1       -0.0111
     11 C           5.5301    0.5000    0.0000 C.ar    1  UNL1       -0.0053
     12 C           6.3961   -1.0000    0.0000 C.ar    1  UNL1        0.1666
     13 C           6.3961    0.0000    0.0000 C.ar    1  UNL1        0.1669
     14 C           2.0000    0.5242    0.0000 C.3     1  UNL1       -0.0424
     15 C           7.9260   -0.5000    0.0000 C.3     1  UNL1        0.2332
     16 H           2.3266   -0.2881    0.0000 H       1  UNL1        0.0540
     17 H           3.3765   -2.0136    0.0000 H       1  UNL1        0.0474
     18 H           4.1748   -2.0044    0.0000 H       1  UNL1        0.0474
     19 H           2.3284   -1.3328    0.0000 H       1  UNL1        0.1229
     20 H           5.5301   -2.1200    0.0000 H       1  UNL1        0.0659
     21 H           5.5301    1.1200    0.0000 H       1  UNL1        0.0662
     22 H           2.3121    1.0599    0.0000 H       1  UNL1        0.0249
     23 H           1.4643    0.8363    0.0000 H       1  UNL1        0.0249
     24 H           1.6879   -0.0116    0.0000 H       1  UNL1        0.0249
     25 H           8.3869   -0.9147    0.0000 H       1  UNL1        0.1166
     26 H           8.3869   -0.0852    0.0000 H       1  UNL1        0.1166
@<TRIPOS>BOND
     1     1    12    1
     2     1    15    1
     3     2    13    1
     4     2    15    1
     5     3     9    2
     6     4     5    1
     7     4     8    1
     8     4    19    1
     9     5     9    1
    10     5    14    1
    11     5    16    1
    12     6     7   ar
    13     6     8    1
    14     6    10   ar
    15     7     9    1
    16     7    11   ar
    17     8    17    1
    18     8    18    1
    19    10    12   ar
    20    10    20    1
    21    11    13   ar
    22    11    21    1
    23    12    13   ar
    24    14    22    1
    25    14    23    1
    26    14    24    1
    27    15    25    1
    28    15    26    1
