@<TRIPOS>MOLECULE
IMPHY008252
 24 24 0 0 0
SMALL
GASTEIGER

@<TRIPOS>ATOM
      1 O           6.0010    1.0000    0.0000 O.3     1  UNL1       -0.3865
      2 O           6.0010   -1.0000    0.0000 O.3     1  UNL1       -0.3865
      3 O           4.2690    2.0000    0.0000 O.3     1  UNL1       -0.3865
      4 O           4.2690   -2.0000    0.0000 O.3     1  UNL1       -0.3865
      5 O           2.5369    1.0000    0.0000 O.3     1  UNL1       -0.3865
      6 O           2.5369   -1.0000    0.0000 O.3     1  UNL1       -0.3865
      7 C           5.1350    0.5000    0.0000 C.3     1  UNL1        0.1118
      8 C           5.1350   -0.5000    0.0000 C.3     1  UNL1        0.1118
      9 C           4.2690    1.0000    0.0000 C.3     1  UNL1        0.1118
     10 C           4.2690   -1.0000    0.0000 C.3     1  UNL1        0.1118
     11 C           3.4030    0.5000    0.0000 C.3     1  UNL1        0.1118
     12 C           3.4030   -0.5000    0.0000 C.3     1  UNL1        0.1118
     13 H           5.6720    0.1900    0.0000 H       1  UNL1        0.0647
     14 H           5.1350   -1.1200    0.0000 H       1  UNL1        0.0647
     15 H           4.8059    1.3100    0.0000 H       1  UNL1        0.0647
     16 H           3.7320   -1.3100    0.0000 H       1  UNL1        0.0647
     17 H           3.4030    1.1200    0.0000 H       1  UNL1        0.0647
     18 H           3.4030   -1.1200    0.0000 H       1  UNL1        0.0647
     19 H           6.5380    0.6900    0.0000 H       1  UNL1        0.2100
     20 H           6.0010   -1.6200    0.0000 H       1  UNL1        0.2100
     21 H           4.8059    2.3100    0.0000 H       1  UNL1        0.2100
     22 H           3.7320   -2.3100    0.0000 H       1  UNL1        0.2100
     23 H           2.5369    1.6200    0.0000 H       1  UNL1        0.2100
     24 H           2.0000   -0.6900    0.0000 H       1  UNL1        0.2100
@<TRIPOS>BOND
     1     1     7    1
     2     1    19    1
     3     2     8    1
     4     2    20    1
     5     3     9    1
     6     3    21    1
     7     4    10    1
     8     4    22    1
     9     5    11    1
    10     5    23    1
    11     6    12    1
    12     6    24    1
    13     7     8    1
    14     7     9    1
    15     7    13    1
    16     8    10    1
    17     8    14    1
    18     9    11    1
    19     9    15    1
    20    10    12    1
    21    10    16    1
    22    11    12    1
    23    11    17    1
    24    12    18    1
