@<TRIPOS>MOLECULE
IMPHY006252
 52 53 0 0 0
SMALL
GASTEIGER

@<TRIPOS>ATOM
      1 O           6.2470   -2.2582    0.0000 O.3     1  UNL1       -0.4532
      2 O           5.2946    0.6626    0.0000 O.3     1  UNL1       -0.4544
      3 O           6.2456    1.9716    0.0000 O.3     1  UNL1       -0.3838
      4 O          10.2744   -0.9555    0.0000 O.3     1  UNL1       -0.3872
      5 O           4.4928   -2.5380    0.0000 O.2     1  UNL1       -0.2453
      6 O           4.9344    2.3568    0.0000 O.2     1  UNL1       -0.2453
      7 C           6.2456   -0.6465    0.0000 C.3     1  UNL1        0.0708
      8 C           6.2456    0.3535    0.0000 C.3     1  UNL1        0.1435
      9 C           6.8334   -1.4555    0.0000 C.3     1  UNL1        0.1323
     10 C           6.8334    1.1626    0.0000 C.3     1  UNL1        0.1136
     11 C           5.3010   -0.9561    0.0000 C.2     1  UNL1        0.0401
     12 C           7.7844   -1.7645    0.0000 C.2     1  UNL1       -0.0418
     13 C           7.7844    1.4716    0.0000 C.2     1  UNL1       -0.0448
     14 C           5.3018   -1.9502    0.0000 C.2     1  UNL1        0.3357
     15 C           8.7355   -1.4555    0.0000 C.2     1  UNL1       -0.0447
     16 C           9.3233   -0.6465    0.0000 C.3     1  UNL1        0.0795
     17 C           9.3233    0.3535    0.0000 C.3     1  UNL1       -0.0044
     18 C           8.7355    1.1626    0.0000 C.2     1  UNL1       -0.0797
     19 C           4.4910   -0.3697    0.0000 C.2     1  UNL1       -0.0882
     20 C           7.7844    2.4716    0.0000 C.3     1  UNL1       -0.0413
     21 C           9.3233   -2.2645    0.0000 C.3     1  UNL1       -0.0412
     22 C           4.6254    1.4057    0.0000 C.2     1  UNL1        0.3349
     23 C           3.6473    1.1978    0.0000 C.2     1  UNL1        0.0293
     24 C           3.3383    0.2467    0.0000 C.3     1  UNL1       -0.0333
     25 C           2.9782    1.9409    0.0000 C.2     1  UNL1       -0.0774
     26 C           2.0000    1.7330    0.0000 C.3     1  UNL1       -0.0461
     27 H           5.5573   -0.1477    0.0000 H       1  UNL1        0.0428
     28 H           5.9830    1.1619    0.0000 H       1  UNL1        0.0771
     29 H           7.0950   -2.2642    0.0000 H       1  UNL1        0.0787
     30 H           7.0961    1.9710    0.0000 H       1  UNL1        0.0678
     31 H           7.7844   -2.3845    0.0000 H       1  UNL1        0.0609
     32 H           9.5860   -1.4549    0.0000 H       1  UNL1        0.0643
     33 H           9.9130    0.1619    0.0000 H       1  UNL1        0.0336
     34 H           9.6877    0.8551    0.0000 H       1  UNL1        0.0336
     35 H           9.0999    1.6641    0.0000 H       1  UNL1        0.0573
     36 H           4.5547    0.2470    0.0000 H       1  UNL1        0.0540
     37 H           3.9250   -0.6229    0.0000 H       1  UNL1        0.0540
     38 H           8.4045    2.4716    0.0000 H       1  UNL1        0.0275
     39 H           7.7844    3.0916    0.0000 H       1  UNL1        0.0275
     40 H           7.1644    2.4716    0.0000 H       1  UNL1        0.0275
     41 H           6.4978    2.5380    0.0000 H       1  UNL1        0.2104
     42 H           8.8217   -2.6289    0.0000 H       1  UNL1        0.0275
     43 H           9.6877   -2.7661    0.0000 H       1  UNL1        0.0275
     44 H           9.8249   -1.9001    0.0000 H       1  UNL1        0.0275
     45 H          10.7351   -0.5406    0.0000 H       1  UNL1        0.2102
     46 H           2.7486    0.4383    0.0000 H       1  UNL1        0.0280
     47 H           3.1467   -0.3429    0.0000 H       1  UNL1        0.0280
     48 H           3.9279    0.0551    0.0000 H       1  UNL1        0.0280
     49 H           3.1697    2.5306    0.0000 H       1  UNL1        0.0574
     50 H           1.8711    2.3395    0.0000 H       1  UNL1        0.0272
     51 H           1.3936    1.6041    0.0000 H       1  UNL1        0.0272
     52 H           2.1289    1.1266    0.0000 H       1  UNL1        0.0272
@<TRIPOS>BOND
     1     1     9    1
     2     1    14    1
     3     2     8    1
     4     2    22    1
     5     3    10    1
     6     3    41    1
     7     4    16    1
     8     4    45    1
     9     5    14    2
    10     6    22    2
    11     7     8    1
    12     7     9    1
    13     7    11    1
    14     7    27    1
    15     8    10    1
    16     8    28    1
    17     9    12    1
    18     9    29    1
    19    10    13    1
    20    10    30    1
    21    11    14    1
    22    11    19    2
    23    12    15    2
    24    12    31    1
    25    13    18    2
    26    13    20    1
    27    15    16    1
    28    15    21    1
    29    16    17    1
    30    16    32    1
    31    17    18    1
    32    17    33    1
    33    17    34    1
    34    18    35    1
    35    19    36    1
    36    19    37    1
    37    20    38    1
    38    20    39    1
    39    20    40    1
    40    21    42    1
    41    21    43    1
    42    21    44    1
    43    22    23    1
    44    23    24    1
    45    23    25    2
    46    24    46    1
    47    24    47    1
    48    24    48    1
    49    25    26    1
    50    25    49    1
    51    26    50    1
    52    26    51    1
    53    26    52    1
