@<TRIPOS>MOLECULE
IMPHY017835
 31 32 0 0 0
SMALL
GASTEIGER

@<TRIPOS>ATOM
      1 O           2.9935    0.3871    0.0000 O.3     1  UNL1       -0.4607
      2 O           3.7255    1.9568    0.0000 O.2     1  UNL1       -0.2512
      3 C           5.6145   -0.3832    0.0000 C.3     1  UNL1       -0.0321
      4 C           4.2418   -0.9752    0.0000 C.3     1  UNL1        0.0053
      5 C           5.8733    0.5827    0.0000 C.3     1  UNL1       -0.0030
      6 C           3.8998   -0.0355    0.0000 C.3     1  UNL1        0.1112
      7 C           5.1367    1.5653    0.0000 C.3     1  UNL1       -0.0434
      8 C           7.0134   -0.8920    0.0000 C.3     1  UNL1       -0.0492
      9 C           7.2722    0.0739    0.0000 C.3     1  UNL1       -0.0466
     10 C           3.3672   -1.4600    0.0000 C.3     1  UNL1       -0.0562
     11 C           4.4326   -1.9568    0.0000 C.3     1  UNL1       -0.0562
     12 C           2.9063    1.3833    0.0000 C.2     1  UNL1        0.3042
     13 C           2.0000    1.8059    0.0000 C.3     1  UNL1        0.0332
     14 H           5.6326   -1.0029    0.0000 H       1  UNL1        0.0307
     15 H           5.8593   -0.0371    0.0000 H       1  UNL1        0.0337
     16 H           3.9409    0.5831    0.0000 H       1  UNL1        0.0742
     17 H           5.4545    2.0977    0.0000 H       1  UNL1        0.0272
     18 H           4.5236    1.6573    0.0000 H       1  UNL1        0.0272
     19 H           6.8185   -1.4806    0.0000 H       1  UNL1        0.0268
     20 H           7.6074   -1.0698    0.0000 H       1  UNL1        0.0268
     21 H           7.8662   -0.1039    0.0000 H       1  UNL1        0.0269
     22 H           7.4672    0.6625    0.0000 H       1  UNL1        0.0269
     23 H           3.0666   -0.9178    0.0000 H       1  UNL1        0.0236
     24 H           2.8249   -1.7606    0.0000 H       1  UNL1        0.0236
     25 H           3.6678   -2.0023    0.0000 H       1  UNL1        0.0236
     26 H           3.8240   -2.0752    0.0000 H       1  UNL1        0.0236
     27 H           4.5509   -2.5655    0.0000 H       1  UNL1        0.0236
     28 H           5.0412   -1.8386    0.0000 H       1  UNL1        0.0236
     29 H           2.2620    2.3678    0.0000 H       1  UNL1        0.0342
     30 H           1.4381    2.0679    0.0000 H       1  UNL1        0.0342
     31 H           1.7380    1.2440    0.0000 H       1  UNL1        0.0342
@<TRIPOS>BOND
     1     6     1    1
     2     1    12    1
     3     2    12    2
     4     3     4    1
     5     3     7    1
     6     3     8    1
     7     3    14    1
     8     4     6    1
     9     4    10    1
    10     4    11    1
    11     5     6    1
    12     5     7    1
    13     5     9    1
    14     5    15    1
    15     6    16    1
    16     7    17    1
    17     7    18    1
    18     8     9    1
    19     8    19    1
    20     8    20    1
    21     9    21    1
    22     9    22    1
    23    10    23    1
    24    10    24    1
    25    10    25    1
    26    11    26    1
    27    11    27    1
    28    11    28    1
    29    12    13    1
    30    13    29    1
    31    13    30    1
    32    13    31    1
