@<TRIPOS>MOLECULE
IMPHY007870
 29 31 0 0 0
SMALL
GASTEIGER

@<TRIPOS>ATOM
      1 O           2.8680    0.4657    0.0000 O.2     1  UNL1       -0.4911
      2 O           5.5103    1.9730    0.0000 O.3     1  UNL1       -0.5061
      3 O           4.6497    1.4762    0.0000 O.2     1  UNL1       -0.2833
      4 O           4.6497   -2.5930    0.0000 O.2     1  UNL1       -0.2871
      5 C           5.5320   -0.0584    0.0000 C.ar    1  UNL1        0.0473
      6 C           6.3981    0.4416    0.0000 C.ar    1  UNL1        0.0351
      7 C           5.5320   -1.0584    0.0000 C.ar    1  UNL1        0.0334
      8 C           7.2641   -0.0584    0.0000 C.ar    1  UNL1       -0.0137
      9 C           6.3981   -1.5584    0.0000 C.ar    1  UNL1       -0.0497
     10 C           4.6381    0.4762    0.0000 C.2     1  UNL1        0.2288
     11 C           7.2641   -1.0584    0.0000 C.ar    1  UNL1       -0.0532
     12 C           6.3820    1.4831    0.0000 C.ar    1  UNL1        0.1252
     13 C           4.6381   -1.5931    0.0000 C.2     1  UNL1        0.1904
     14 C           8.1741    0.4484    0.0000 C.ar    1  UNL1       -0.0538
     15 C           3.7320   -0.0376    0.0000 C.2     1  UNL1        0.1708
     16 C           3.7320   -1.0792    0.0000 C.2     1  UNL1        0.0312
     17 C           7.2800    2.0108    0.0000 C.ar    1  UNL1       -0.0195
     18 C           8.1821    1.4900    0.0000 C.ar    1  UNL1       -0.0577
     19 C           2.0000   -0.0309    0.0000 C.3     1  UNL1        0.0790
     20 H           6.3981   -2.1784    0.0000 H       1  UNL1        0.0625
     21 H           7.8010   -1.3684    0.0000 H       1  UNL1        0.0624
     22 H           8.7074    0.1322    0.0000 H       1  UNL1        0.0624
     23 H           3.1963   -1.3913    0.0000 H       1  UNL1        0.0694
     24 H           7.2777    2.6308    0.0000 H       1  UNL1        0.0654
     25 H           8.7203    1.7980    0.0000 H       1  UNL1        0.0619
     26 H           5.5031    2.5930    0.0000 H       1  UNL1        0.2922
     27 H           1.6921    0.5072    0.0000 H       1  UNL1        0.0660
     28 H           1.4619   -0.3388    0.0000 H       1  UNL1        0.0660
     29 H           2.3079   -0.5690    0.0000 H       1  UNL1        0.0660
@<TRIPOS>BOND
     1     1    15    1
     2     1    19    1
     3     2    12    1
     4     2    26    1
     5     3    10    2
     6     4    13    2
     7     5     6   ar
     8     5     7   ar
     9     5    10    1
    10     6     8   ar
    11     6    12   ar
    12     7     9   ar
    13     7    13    1
    14     8    11   ar
    15     8    14   ar
    16     9    11   ar
    17     9    20    1
    18    10    15    1
    19    11    21    1
    20    12    17   ar
    21    13    16    1
    22    14    18   ar
    23    14    22    1
    24    15    16    2
    25    16    23    1
    26    17    18   ar
    27    17    24    1
    28    18    25    1
    29    19    27    1
    30    19    28    1
    31    19    29    1
