@<TRIPOS>MOLECULE
IMPHY007993
 79 82 0 0 0
SMALL
GASTEIGER

@<TRIPOS>ATOM
      1 O           6.8441   -0.5095    0.0000 O.3     1  UNL1       -0.4538
      2 O           4.5298   -4.6826    0.0000 O.3     1  UNL1       -0.4495
      3 O           3.2729   -1.4273    0.0000 O.3     1  UNL1       -0.3908
      4 O           5.3958   -5.1826    0.0000 O.2     1  UNL1       -0.2881
      5 O           8.5172   -0.0613    0.0000 O.2     1  UNL1       -0.2456
      6 O           2.7978   -4.6826    0.0000 O.2     1  UNL1       -0.2511
      7 O           7.0336    3.5436    0.0000 O.3     1  UNL1       -0.3639
      8 C           9.0121   -3.4806    0.0000 C.3     1  UNL1       -0.0248
      9 C           8.3277   -2.7002    0.0000 C.3     1  UNL1       -0.0249
     10 C           7.9939   -3.6826    0.0000 C.3     1  UNL1       -0.0134
     11 C           8.0689   -1.7343    0.0000 C.3     1  UNL1       -0.0078
     12 C           9.7641   -2.8215    0.0000 C.3     1  UNL1       -0.0590
     13 C           9.2069   -4.4615    0.0000 C.3     1  UNL1       -0.0590
     14 C           7.1279   -4.1826    0.0000 C.2     1  UNL1       -0.0738
     15 C           7.1030   -1.4755    0.0000 C.3     1  UNL1        0.1245
     16 C           4.5298   -3.6826    0.0000 C.3     1  UNL1        0.1836
     17 C           4.5298   -2.6826    0.0000 C.3     1  UNL1        0.0510
     18 C           6.2619   -3.6826    0.0000 C.2     1  UNL1       -0.0076
     19 C           6.3958   -2.1826    0.0000 C.2     1  UNL1       -0.0361
     20 C           3.5836   -3.9873    0.0000 C.3     1  UNL1        0.0002
     21 C           3.5836   -2.3778    0.0000 C.3     1  UNL1        0.0682
     22 C           3.0000   -3.1826    0.0000 C.3     1  UNL1       -0.0130
     23 C           5.3958   -4.1826    0.0000 C.2     1  UNL1        0.2027
     24 C           5.3958   -2.1826    0.0000 C.2     1  UNL1       -0.0719
     25 C           6.0882   -2.6978    0.0000 C.3     1  UNL1       -0.0366
     26 C           6.7785   -3.1065    0.0000 C.3     1  UNL1       -0.0403
     27 C           2.0000   -3.1826    0.0000 C.3     1  UNL1       -0.0599
     28 C           7.5512    0.1976    0.0000 C.2     1  UNL1        0.3323
     29 C           3.6638   -5.1826    0.0000 C.2     1  UNL1        0.3049
     30 C           7.2924    1.1635    0.0000 C.2     1  UNL1        0.0211
     31 C           3.6638   -6.1826    0.0000 C.3     1  UNL1        0.0333
     32 C           7.7407    2.8365    0.0000 C.3     1  UNL1        0.1039
     33 C           7.9995    3.8024    0.0000 C.3     1  UNL1        0.0892
     34 C           7.9995    1.8706    0.0000 C.2     1  UNL1       -0.0464
     35 C           8.7066    4.5096    0.0000 C.3     1  UNL1       -0.0241
     36 C           8.4478    5.4755    0.0000 C.3     1  UNL1       -0.0535
     37 C           9.1549    6.1826    0.0000 C.3     1  UNL1       -0.0652
     38 H           9.0773   -2.2995    0.0000 H       1  UNL1        0.0313
     39 H           8.2931   -4.4782    0.0000 H       1  UNL1        0.0351
     40 H           8.6865   -1.6803    0.0000 H       1  UNL1        0.0307
     41 H           8.1229   -1.1166    0.0000 H       1  UNL1        0.0307
     42 H          10.1728   -3.2878    0.0000 H       1  UNL1        0.0235
     43 H          10.2304   -2.4128    0.0000 H       1  UNL1        0.0235
     44 H           9.3554   -2.3552    0.0000 H       1  UNL1        0.0235
     45 H           8.5988   -4.5822    0.0000 H       1  UNL1        0.0235
     46 H           9.3277   -5.0696    0.0000 H       1  UNL1        0.0235
     47 H           9.8150   -4.3407    0.0000 H       1  UNL1        0.0235
     48 H           7.1279   -4.8026    0.0000 H       1  UNL1        0.0579
     49 H           7.5414   -1.0371    0.0000 H       1  UNL1        0.0782
     50 H           4.4399   -1.8374    0.0000 H       1  UNL1        0.0412
     51 H           3.0462   -4.2965    0.0000 H       1  UNL1        0.0312
     52 H           3.8346   -4.5542    0.0000 H       1  UNL1        0.0312
     53 H           2.9711   -2.2816    0.0000 H       1  UNL1        0.0603
     54 H           2.7183   -3.7349    0.0000 H       1  UNL1        0.0325
     55 H           5.2354   -1.5837    0.0000 H       1  UNL1        0.0578
     56 H           6.6988   -2.5901    0.0000 H       1  UNL1        0.0279
     57 H           5.9806   -2.0872    0.0000 H       1  UNL1        0.0279
     58 H           5.4776   -2.8054    0.0000 H       1  UNL1        0.0279
     59 H           2.0000   -2.5626    0.0000 H       1  UNL1        0.0233
     60 H           1.3800   -3.1826    0.0000 H       1  UNL1        0.0233
     61 H           2.0000   -3.8026    0.0000 H       1  UNL1        0.0233
     62 H           6.2057   -3.3437    0.0000 H       1  UNL1        0.0276
     63 H           7.0158   -3.6793    0.0000 H       1  UNL1        0.0276
     64 H           7.3513   -2.8692    0.0000 H       1  UNL1        0.0276
     65 H           2.6663   -1.2995    0.0000 H       1  UNL1        0.2098
     66 H           6.6936    1.3240    0.0000 H       1  UNL1        0.0686
     67 H           3.0438   -6.1826    0.0000 H       1  UNL1        0.0342
     68 H           3.6638   -6.8026    0.0000 H       1  UNL1        0.0342
     69 H           4.2838   -6.1826    0.0000 H       1  UNL1        0.0342
     70 H           7.2038    2.5265    0.0000 H       1  UNL1        0.0667
     71 H           7.6895    4.3394    0.0000 H       1  UNL1        0.0625
     72 H           8.5984    1.7101    0.0000 H       1  UNL1        0.0601
     73 H           9.0623    4.0017    0.0000 H       1  UNL1        0.0291
     74 H           9.2686    4.7716    0.0000 H       1  UNL1        0.0291
     75 H           8.0922    5.9834    0.0000 H       1  UNL1        0.0263
     76 H           7.8859    5.2134    0.0000 H       1  UNL1        0.0263
     77 H           9.5933    5.7442    0.0000 H       1  UNL1        0.0230
     78 H           9.5933    6.6210    0.0000 H       1  UNL1        0.0230
     79 H           8.7165    6.6210    0.0000 H       1  UNL1        0.0230
@<TRIPOS>BOND
     1    15     1    1
     2     1    28    1
     3    16     2    1
     4     2    29    1
     5    21     3    1
     6     3    65    1
     7     4    23    2
     8     5    28    2
     9     6    29    2
    10     7    32    1
    11     7    33    1
    12     8     9    1
    13     8    10    1
    14     8    12    1
    15     8    13    1
    16     9    10    1
    17     9    11    1
    18     9    38    1
    19    10    14    1
    20    10    39    1
    21    11    15    1
    22    11    40    1
    23    11    41    1
    24    12    42    1
    25    12    43    1
    26    12    44    1
    27    13    45    1
    28    13    46    1
    29    13    47    1
    30    14    18    2
    31    14    48    1
    32    15    19    1
    33    15    49    1
    34    16    17    1
    35    16    20    1
    36    16    23    1
    37    17    21    1
    38    17    24    1
    39    17    50    1
    40    18    23    1
    41    18    25    1
    42    19    24    2
    43    19    26    1
    44    20    22    1
    45    20    51    1
    46    20    52    1
    47    21    22    1
    48    21    53    1
    49    22    27    1
    50    22    54    1
    51    24    55    1
    52    25    56    1
    53    25    57    1
    54    25    58    1
    55    26    62    1
    56    26    63    1
    57    26    64    1
    58    27    59    1
    59    27    60    1
    60    27    61    1
    61    28    30    1
    62    29    31    1
    63    30    34    2
    64    30    66    1
    65    31    67    1
    66    31    68    1
    67    31    69    1
    68    32    33    1
    69    32    34    1
    70    32    70    1
    71    33    35    1
    72    33    71    1
    73    34    72    1
    74    35    36    1
    75    35    73    1
    76    35    74    1
    77    36    37    1
    78    36    75    1
    79    36    76    1
    80    37    77    1
    81    37    78    1
    82    37    79    1
