@<TRIPOS>MOLECULE
IMPHY001847
 148 155 0 0 0
SMALL
GASTEIGER

@<TRIPOS>ATOM
      1 O           5.0578    5.5576    0.0000 O.3     1  UNL1       -0.3910
      2 O           7.7331   -2.1946    0.0000 O.3     1  UNL1       -0.3448
      3 O           6.4817    7.5996    0.0000 O.3     1  UNL1       -0.3885
      4 O           7.7732    8.1988    0.0000 O.3     1  UNL1       -0.3887
      5 O           5.3338    6.8583    0.0000 O.3     1  UNL1       -0.3943
      6 O           5.3023    0.2291    0.0000 O.3     1  UNL1       -0.3944
      7 O           6.0010   -2.1946    0.0000 O.3     1  UNL1       -0.3315
      8 O           7.7331   -4.1946    0.0000 O.3     1  UNL1       -0.3378
      9 O           6.0010   -5.1946    0.0000 O.3     1  UNL1       -0.3864
     10 O           4.2690   -4.1946    0.0000 O.3     1  UNL1       -0.3396
     11 O           8.5991   -2.6946    0.0000 O.3     1  UNL1       -0.3405
     12 O           4.2690   -1.1946    0.0000 O.3     1  UNL1       -0.4788
     13 O           3.4030   -2.6946    0.0000 O.2     1  UNL1       -0.2480
     14 O           5.1350   -5.6946    0.0000 O.3     1  UNL1       -0.3405
     15 O           9.4651   -5.1946    0.0000 O.3     1  UNL1       -0.3841
     16 O          11.1972   -4.1946    0.0000 O.3     1  UNL1       -0.3864
     17 O          11.1972   -2.1946    0.0000 O.3     1  UNL1       -0.3865
     18 O           2.5369   -5.1946    0.0000 O.3     1  UNL1       -0.3841
     19 O           2.5369   -7.1946    0.0000 O.3     1  UNL1       -0.3864
     20 O          10.3312   -0.6946    0.0000 O.3     1  UNL1       -0.3924
     21 O           4.2690   -8.1946    0.0000 O.3     1  UNL1       -0.3865
     22 O           6.0010   -8.1946    0.0000 O.3     1  UNL1       -0.3924
     23 C           6.8320    2.5056    0.0000 C.3     1  UNL1       -0.0193
     24 C           7.6961    2.0023    0.0000 C.3     1  UNL1       -0.0257
     25 C           7.7082    0.9607    0.0000 C.3     1  UNL1       -0.0249
     26 C           6.8359    3.5056    0.0000 C.3     1  UNL1       -0.0028
     27 C           6.8081    0.4364    0.0000 C.3     1  UNL1       -0.0255
     28 C           5.9201    2.0023    0.0000 C.3     1  UNL1       -0.0463
     29 C           7.7038    4.0023    0.0000 C.2     1  UNL1       -0.0631
     30 C           7.7239    5.0437    0.0000 C.3     1  UNL1       -0.0062
     31 C           6.8279    5.5749    0.0000 C.3     1  UNL1        0.0545
     32 C           5.9080    0.9607    0.0000 C.3     1  UNL1       -0.0485
     33 C           6.7956   -0.6485    0.0000 C.3     1  UNL1        0.0206
     34 C           5.9278    4.0160    0.0000 C.3     1  UNL1       -0.0165
     35 C           8.5641    2.4989    0.0000 C.3     1  UNL1       -0.0306
     36 C           8.6581    0.4364    0.0000 C.3     1  UNL1       -0.0447
     37 C           5.9238    5.0576    0.0000 C.3     1  UNL1        0.0667
     38 C           5.8479    2.6831    0.0000 C.3     1  UNL1       -0.0585
     39 C           7.7331   -1.1946    0.0000 C.3     1  UNL1        0.0695
     40 C           8.5679    3.4989    0.0000 C.2     1  UNL1       -0.0836
     41 C           8.5723    1.4641    0.0000 C.3     1  UNL1       -0.0590
     42 C           8.6706   -0.6485    0.0000 C.3     1  UNL1       -0.0254
     43 C           5.8504    3.3358    0.0000 C.3     1  UNL1       -0.0552
     44 C           8.6778    5.5607    0.0000 C.3     1  UNL1       -0.0381
     45 C           6.8237    6.6599    0.0000 C.3     1  UNL1        0.0921
     46 C           8.6987    6.6454    0.0000 C.3     1  UNL1       -0.0059
     47 C           7.7654    7.1988    0.0000 C.3     1  UNL1        0.0869
     48 C           5.9677    6.0849    0.0000 C.3     1  UNL1        0.0552
     49 C           5.7956   -0.6408    0.0000 C.3     1  UNL1        0.0522
     50 C           6.2889   -1.5106    0.0000 C.3     1  UNL1       -0.0548
     51 C           9.2120    7.5037    0.0000 C.3     1  UNL1       -0.0574
     52 C           9.6986    6.6300    0.0000 C.3     1  UNL1       -0.0574
     53 C           6.8671   -2.6946    0.0000 C.3     1  UNL1        0.1892
     54 C           6.8671   -3.6946    0.0000 C.3     1  UNL1        0.1407
     55 C           6.0010   -4.1946    0.0000 C.3     1  UNL1        0.1153
     56 C           5.1350   -2.6946    0.0000 C.3     1  UNL1        0.1863
     57 C           5.1350   -3.6946    0.0000 C.3     1  UNL1        0.1267
     58 C           8.5991   -3.6946    0.0000 C.3     1  UNL1        0.1885
     59 C           4.2690   -2.1946    0.0000 C.2     1  UNL1        0.3367
     60 C           9.4651   -4.1946    0.0000 C.3     1  UNL1        0.1341
     61 C           4.2690   -5.1946    0.0000 C.3     1  UNL1        0.1885
     62 C          10.3312   -3.6946    0.0000 C.3     1  UNL1        0.1141
     63 C           9.4651   -2.1946    0.0000 C.3     1  UNL1        0.1130
     64 C          10.3312   -2.6946    0.0000 C.3     1  UNL1        0.1119
     65 C           3.4030   -5.6946    0.0000 C.3     1  UNL1        0.1341
     66 C           3.4030   -6.6946    0.0000 C.3     1  UNL1        0.1141
     67 C           5.1350   -6.6946    0.0000 C.3     1  UNL1        0.1130
     68 C           9.4651   -1.1946    0.0000 C.3     1  UNL1        0.0730
     69 C           4.2690   -7.1946    0.0000 C.3     1  UNL1        0.1119
     70 C           6.0010   -7.1946    0.0000 C.3     1  UNL1        0.0730
     71 H           8.4339    1.5801    0.0000 H       1  UNL1        0.0315
     72 H           6.0687    0.0171    0.0000 H       1  UNL1        0.0313
     73 H           5.7178    2.5884    0.0000 H       1  UNL1        0.0271
     74 H           5.3080    1.9033    0.0000 H       1  UNL1        0.0271
     75 H           8.4500    4.6018    0.0000 H       1  UNL1        0.0354
     76 H           5.2984    1.0739    0.0000 H       1  UNL1        0.0268
     77 H           5.6922    0.3795    0.0000 H       1  UNL1        0.0268
     78 H           5.3166    4.1197    0.0000 H       1  UNL1        0.0299
     79 H           5.7210    3.4315    0.0000 H       1  UNL1        0.0299
     80 H           8.7739    1.9155    0.0000 H       1  UNL1        0.0310
     81 H           9.1751    2.6042    0.0000 H       1  UNL1        0.0310
     82 H           9.2701    0.3374    0.0000 H       1  UNL1        0.0271
     83 H           8.8604    1.0225    0.0000 H       1  UNL1        0.0271
     84 H           5.3875    4.7466    0.0000 H       1  UNL1        0.0601
     85 H           5.9579    3.2932    0.0000 H       1  UNL1        0.0235
     86 H           5.2377    2.7931    0.0000 H       1  UNL1        0.0235
     87 H           5.7379    2.0729    0.0000 H       1  UNL1        0.0235
     88 H           8.2706   -1.5036    0.0000 H       1  UNL1        0.0603
     89 H           9.1060    3.8069    0.0000 H       1  UNL1        0.0572
     90 H           8.8843    0.9283    0.0000 H       1  UNL1        0.0235
     91 H           9.1080    1.7761    0.0000 H       1  UNL1        0.0235
     92 H           8.2602    1.9998    0.0000 H       1  UNL1        0.0235
     93 H           8.8864   -1.2297    0.0000 H       1  UNL1        0.0290
     94 H           9.2802   -0.5353    0.0000 H       1  UNL1        0.0290
     95 H           5.7451    3.9468    0.0000 H       1  UNL1        0.0238
     96 H           5.2394    3.2305    0.0000 H       1  UNL1        0.0238
     97 H           5.9557    2.7248    0.0000 H       1  UNL1        0.0238
     98 H           8.8756    4.9730    0.0000 H       1  UNL1        0.0277
     99 H           9.2906    5.6550    0.0000 H       1  UNL1        0.0277
    100 H           6.2134    6.5511    0.0000 H       1  UNL1        0.0626
    101 H           8.3053    7.5036    0.0000 H       1  UNL1        0.0625
    102 H           5.3717    5.9140    0.0000 H       1  UNL1        0.0564
    103 H           6.3717    6.5552    0.0000 H       1  UNL1        0.0564
    104 H           5.2114   -0.8483    0.0000 H       1  UNL1        0.0563
    105 H           5.8985   -1.2522    0.0000 H       1  UNL1        0.0563
    106 H           5.7544   -1.1965    0.0000 H       1  UNL1        0.0237
    107 H           5.9748   -2.0452    0.0000 H       1  UNL1        0.0237
    108 H           6.8234   -1.8248    0.0000 H       1  UNL1        0.0237
    109 H           4.5209    5.2476    0.0000 H       1  UNL1        0.2098
    110 H           9.7441    7.1854    0.0000 H       1  UNL1        0.0236
    111 H           9.5303    8.0358    0.0000 H       1  UNL1        0.0236
    112 H           8.6799    7.8219    0.0000 H       1  UNL1        0.0236
    113 H           9.6891    6.0101    0.0000 H       1  UNL1        0.0236
    114 H          10.3185    6.6205    0.0000 H       1  UNL1        0.0236
    115 H           9.7082    7.2500    0.0000 H       1  UNL1        0.0236
    116 H           6.8802    8.0746    0.0000 H       1  UNL1        0.2099
    117 H           8.3125    8.5046    0.0000 H       1  UNL1        0.2099
    118 H           7.4040   -3.0046    0.0000 H       1  UNL1        0.0938
    119 H           4.7220    6.7577    0.0000 H       1  UNL1        0.2094
    120 H           4.6823    0.2339    0.0000 H       1  UNL1        0.2094
    121 H           6.8671   -4.3146    0.0000 H       1  UNL1        0.0675
    122 H           5.4641   -4.5046    0.0000 H       1  UNL1        0.0648
    123 H           5.1350   -2.0746    0.0000 H       1  UNL1        0.0742
    124 H           4.5981   -3.3846    0.0000 H       1  UNL1        0.0655
    125 H           8.5991   -4.3146    0.0000 H       1  UNL1        0.0938
    126 H           6.5380   -5.5046    0.0000 H       1  UNL1        0.2100
    127 H          10.0021   -4.5046    0.0000 H       1  UNL1        0.0671
    128 H           3.7320   -4.8846    0.0000 H       1  UNL1        0.0938
    129 H          10.8681   -3.3846    0.0000 H       1  UNL1        0.0648
    130 H           8.9282   -1.8846    0.0000 H       1  UNL1        0.0647
    131 H           3.7320   -0.8846    0.0000 H       1  UNL1        0.2951
    132 H          10.3312   -2.0746    0.0000 H       1  UNL1        0.0647
    133 H           2.8660   -6.0046    0.0000 H       1  UNL1        0.0671
    134 H           8.9282   -5.5046    0.0000 H       1  UNL1        0.2101
    135 H           3.4030   -7.3146    0.0000 H       1  UNL1        0.0648
    136 H           5.6720   -6.3846    0.0000 H       1  UNL1        0.0647
    137 H           9.2531   -0.6120    0.0000 H       1  UNL1        0.0584
    138 H           8.8546   -1.3023    0.0000 H       1  UNL1        0.0584
    139 H           4.8059   -7.5046    0.0000 H       1  UNL1        0.0647
    140 H          11.7341   -3.8846    0.0000 H       1  UNL1        0.2100
    141 H          11.1972   -1.5746    0.0000 H       1  UNL1        0.2100
    142 H           2.0000   -5.5046    0.0000 H       1  UNL1        0.2101
    143 H           6.6116   -7.3023    0.0000 H       1  UNL1        0.0584
    144 H           6.2131   -6.6120    0.0000 H       1  UNL1        0.0584
    145 H           2.5369   -7.8146    0.0000 H       1  UNL1        0.2100
    146 H          10.3312   -0.0746    0.0000 H       1  UNL1        0.2095
    147 H           3.7320   -8.5046    0.0000 H       1  UNL1        0.2100
    148 H           6.5380   -8.5046    0.0000 H       1  UNL1        0.2095
@<TRIPOS>BOND
     1    37     1    1
     2     1   109    1
     3     2    39    1
     4    53     2    1
     5    45     3    1
     6     3   116    1
     7     4    47    1
     8     4   117    1
     9     5    48    1
    10     5   119    1
    11     6    49    1
    12     6   120    1
    13     7    53    1
    14     7    56    1
    15     8    54    1
    16     8    58    1
    17    55     9    1
    18     9   126    1
    19    10    57    1
    20    10    61    1
    21    11    58    1
    22    11    63    1
    23    12    59    1
    24    12   131    1
    25    13    59    2
    26    14    61    1
    27    14    67    1
    28    60    15    1
    29    15   134    1
    30    16    62    1
    31    16   140    1
    32    64    17    1
    33    17   141    1
    34    65    18    1
    35    18   142    1
    36    19    66    1
    37    19   145    1
    38    20    68    1
    39    20   146    1
    40    69    21    1
    41    21   147    1
    42    22    70    1
    43    22   148    1
    44    23    24    1
    45    23    26    1
    46    23    28    1
    47    23    38    1
    48    24    25    1
    49    24    35    1
    50    24    71    1
    51    25    27    1
    52    25    36    1
    53    25    41    1
    54    26    29    1
    55    26    34    1
    56    26    43    1
    57    27    32    1
    58    27    33    1
    59    27    72    1
    60    28    32    1
    61    28    73    1
    62    28    74    1
    63    29    30    1
    64    29    40    2
    65    30    31    1
    66    30    44    1
    67    30    75    1
    68    31    37    1
    69    31    45    1
    70    31    48    1
    71    32    76    1
    72    32    77    1
    73    33    39    1
    74    33    49    1
    75    33    50    1
    76    34    37    1
    77    34    78    1
    78    34    79    1
    79    35    40    1
    80    35    80    1
    81    35    81    1
    82    36    42    1
    83    36    82    1
    84    36    83    1
    85    37    84    1
    86    38    85    1
    87    38    86    1
    88    38    87    1
    89    39    42    1
    90    39    88    1
    91    40    89    1
    92    41    90    1
    93    41    91    1
    94    41    92    1
    95    42    93    1
    96    42    94    1
    97    43    95    1
    98    43    96    1
    99    43    97    1
   100    44    46    1
   101    44    98    1
   102    44    99    1
   103    45    47    1
   104    45   100    1
   105    46    47    1
   106    46    51    1
   107    46    52    1
   108    47   101    1
   109    48   102    1
   110    48   103    1
   111    49   104    1
   112    49   105    1
   113    50   106    1
   114    50   107    1
   115    50   108    1
   116    51   110    1
   117    51   111    1
   118    51   112    1
   119    52   113    1
   120    52   114    1
   121    52   115    1
   122    53    54    1
   123    53   118    1
   124    54    55    1
   125    54   121    1
   126    55    57    1
   127    55   122    1
   128    56    57    1
   129    56    59    1
   130    56   123    1
   131    57   124    1
   132    58    60    1
   133    58   125    1
   134    60    62    1
   135    60   127    1
   136    61    65    1
   137    61   128    1
   138    62    64    1
   139    62   129    1
   140    63    64    1
   141    63    68    1
   142    63   130    1
   143    64   132    1
   144    65    66    1
   145    65   133    1
   146    66    69    1
   147    66   135    1
   148    67    69    1
   149    67    70    1
   150    67   136    1
   151    68   137    1
   152    68   138    1
   153    69   139    1
   154    70   143    1
   155    70   144    1
