@<TRIPOS>MOLECULE
IMPHY010494
 208 213 0 0 0
SMALL
GASTEIGER

@<TRIPOS>ATOM
      1 O           8.5271    0.5401    0.0000 O.3     1  UNL1       -0.3400
      2 O          11.0271   -0.3259    0.0000 O.3     1  UNL1       -0.3405
      3 O           9.5271   -2.1920    0.0000 O.3     1  UNL1       -0.3368
      4 O          11.5271   -1.1920    0.0000 O.3     1  UNL1       -0.3377
      5 O           7.0271    1.4061    0.0000 O.3     1  UNL1       -0.3393
      6 O           7.7950   -2.1920    0.0000 O.3     1  UNL1       -0.3410
      7 O          13.4850    0.9140    0.0000 O.3     1  UNL1       -0.3405
      8 O           9.0271    1.4061    0.0000 O.3     1  UNL1       -0.3865
      9 O          12.0911    1.2454    0.0000 O.3     1  UNL1       -0.3454
     10 O           5.0000    1.4061    0.0000 O.3     1  UNL1       -0.4545
     11 O           6.0180    3.1538    0.0000 O.3     1  UNL1       -0.4546
     12 O           6.0180   -0.3415    0.0000 O.3     1  UNL1       -0.3829
     13 O           9.5271   -4.1920    0.0000 O.3     1  UNL1       -0.4533
     14 O          13.4734   -2.1552    0.0000 O.3     1  UNL1       -0.3864
     15 O           9.0271    3.1382    0.0000 O.3     1  UNL1       -0.3451
     16 O           6.0630   -4.1920    0.0000 O.3     1  UNL1       -0.4558
     17 O          15.2552   -1.1448    0.0000 O.3     1  UNL1       -0.3865
     18 O           7.7950   -5.1920    0.0000 O.3     1  UNL1       -0.3842
     19 O          10.5271    2.2722    0.0000 O.3     1  UNL1       -0.3924
     20 O           7.4856    3.9882    0.0000 O.3     1  UNL1       -0.3396
     21 O          16.1231    0.4069    0.0000 O.3     1  UNL1       -0.3924
     22 O          10.0271    4.8702    0.0000 O.3     1  UNL1       -0.4535
     23 O           9.0302    6.6404    0.0000 O.3     1  UNL1       -0.3853
     24 O           6.9820    6.6562    0.0000 O.3     1  UNL1       -0.3864
     25 O           5.0000   -0.3259    0.0000 O.2     1  UNL1       -0.2505
     26 O           4.5114    2.2993    0.0000 O.2     1  UNL1       -0.2505
     27 O           8.6610   -5.6920    0.0000 O.2     1  UNL1       -0.2505
     28 O           5.1969   -2.6920    0.0000 O.2     1  UNL1       -0.2505
     29 O           5.4545    5.7464    0.0000 O.3     1  UNL1       -0.3924
     30 O          10.0271    6.8702    0.0000 O.2     1  UNL1       -0.2508
     31 C           9.0271   -0.3259    0.0000 C.3     1  UNL1        0.1209
     32 C           9.5271   -1.1920    0.0000 C.3     1  UNL1        0.1410
     33 C           9.5271    0.5401    0.0000 C.3     1  UNL1        0.1123
     34 C          10.5271   -1.1920    0.0000 C.3     1  UNL1        0.1889
     35 C          10.5271    0.5401    0.0000 C.3     1  UNL1        0.1130
     36 C           7.5271    0.5401    0.0000 C.3     1  UNL1        0.1896
     37 C          12.5911   -0.6206    0.0000 C.3     1  UNL1        0.1406
     38 C           6.5113    0.5284    0.0000 C.3     1  UNL1        0.1462
     39 C           6.0000    1.4061    0.0000 C.3     1  UNL1        0.1726
     40 C           8.6610   -2.6920    0.0000 C.3     1  UNL1        0.1998
     41 C           6.5113    2.2839    0.0000 C.3     1  UNL1        0.1705
     42 C           7.5271    2.2722    0.0000 C.3     1  UNL1        0.1255
     43 C          13.4850   -1.1553    0.0000 C.3     1  UNL1        0.1144
     44 C           8.6610   -3.6920    0.0000 C.3     1  UNL1        0.1827
     45 C          12.5911    0.3794    0.0000 C.3     1  UNL1        0.1886
     46 C          14.3911   -0.6415    0.0000 C.3     1  UNL1        0.1119
     47 C           7.7950   -4.1920    0.0000 C.3     1  UNL1        0.1360
     48 C           6.9290   -3.6920    0.0000 C.3     1  UNL1        0.1581
     49 C          14.3911    0.4002    0.0000 C.3     1  UNL1        0.1130
     50 C           6.9290   -2.6920    0.0000 C.3     1  UNL1        0.0984
     51 C          11.0271    1.4061    0.0000 C.3     1  UNL1        0.0730
     52 C           8.5271    2.2722    0.0000 C.3     1  UNL1        0.0807
     53 C          12.5911    2.1114    0.0000 C.3     1  UNL1        0.0618
     54 C          15.2552    0.9035    0.0000 C.3     1  UNL1        0.0730
     55 C           6.0630   -2.1920    0.0000 C.3     1  UNL1       -0.0350
     56 C           8.5271    4.0042    0.0000 C.3     1  UNL1        0.1993
     57 C           9.0271    4.8702    0.0000 C.3     1  UNL1        0.1816
     58 C          13.5911    2.1114    0.0000 C.3     1  UNL1       -0.0265
     59 C          12.3322    3.0773    0.0000 C.3     1  UNL1       -0.0265
     60 C           8.5202    5.7802    0.0000 C.3     1  UNL1        0.1251
     61 C           7.4786    5.7883    0.0000 C.3     1  UNL1        0.1130
     62 C           6.9578    4.8862    0.0000 C.3     1  UNL1        0.1131
     63 C           4.5000    0.5401    0.0000 C.2     1  UNL1        0.3104
     64 C           5.0180    3.1615    0.0000 C.2     1  UNL1        0.3104
     65 C          13.5911    3.1114    0.0000 C.3     1  UNL1       -0.0507
     66 C           9.5271   -5.1920    0.0000 C.2     1  UNL1        0.3104
     67 C          13.0394    3.7844    0.0000 C.3     1  UNL1       -0.0507
     68 C           3.5000    0.5401    0.0000 C.3     1  UNL1        0.0534
     69 C           4.5247    4.0313    0.0000 C.3     1  UNL1        0.0534
     70 C           5.1969   -3.6920    0.0000 C.2     1  UNL1        0.3103
     71 C          10.3931   -5.6920    0.0000 C.3     1  UNL1        0.0534
     72 C          14.4571    3.6114    0.0000 C.3     1  UNL1       -0.0530
     73 C           5.9578    4.8823    0.0000 C.3     1  UNL1        0.0730
     74 C           4.3309   -4.1920    0.0000 C.3     1  UNL1        0.0534
     75 C          12.7805    4.7504    0.0000 C.3     1  UNL1       -0.0532
     76 C          14.4571    4.6114    0.0000 C.3     1  UNL1       -0.0531
     77 C           3.0000   -0.3259    0.0000 C.3     1  UNL1       -0.0432
     78 C           3.5247    4.0390    0.0000 C.3     1  UNL1       -0.0432
     79 C          10.3931   -6.6920    0.0000 C.3     1  UNL1       -0.0432
     80 C           3.0000    1.4061    0.0000 C.3     1  UNL1       -0.0523
     81 C           5.0314    4.8935    0.0000 C.3     1  UNL1       -0.0523
     82 C          13.5911    5.1114    0.0000 C.3     1  UNL1       -0.0531
     83 C          11.2591   -5.1920    0.0000 C.3     1  UNL1       -0.0523
     84 C           3.4649   -3.6920    0.0000 C.3     1  UNL1       -0.0432
     85 C          11.8146    5.0092    0.0000 C.3     1  UNL1       -0.0559
     86 C          10.0271    5.8702    0.0000 C.2     1  UNL1        0.3076
     87 C           4.3309   -5.1920    0.0000 C.3     1  UNL1       -0.0523
     88 C          13.5911    6.1114    0.0000 C.3     1  UNL1       -0.0530
     89 C          10.8931    6.3702    0.0000 C.3     1  UNL1        0.0450
     90 C          12.7250    6.6114    0.0000 C.3     1  UNL1       -0.0526
     91 C          11.8590    6.1114    0.0000 C.3     1  UNL1       -0.0430
     92 C           2.0000   -0.3259    0.0000 C.3     1  UNL1       -0.0645
     93 C           3.0314    4.9089    0.0000 C.3     1  UNL1       -0.0645
     94 C          11.2591   -7.1920    0.0000 C.3     1  UNL1       -0.0645
     95 C           2.5989   -4.1920    0.0000 C.3     1  UNL1       -0.0645
     96 C          11.1075    4.3021    0.0000 C.3     1  UNL1       -0.0653
     97 H           8.2910   -0.7509    0.0000 H       1  UNL1        0.0651
     98 H           8.6610   -1.6920    0.0000 H       1  UNL1        0.0675
     99 H           9.8371    1.0770    0.0000 H       1  UNL1        0.0647
    100 H          10.5271   -2.0420    0.0000 H       1  UNL1        0.0938
    101 H          11.1471    0.5401    0.0000 H       1  UNL1        0.0647
    102 H           7.5320   -0.3099    0.0000 H       1  UNL1        0.0938
    103 H          12.5714   -1.4704    0.0000 H       1  UNL1        0.0675
    104 H           5.8913    0.5248    0.0000 H       1  UNL1        0.0683
    105 H           5.6910    1.9437    0.0000 H       1  UNL1        0.0801
    106 H           8.6610   -2.0720    0.0000 H       1  UNL1        0.0949
    107 H           6.8265    2.8178    0.0000 H       1  UNL1        0.0800
    108 H           7.1021    3.0083    0.0000 H       1  UNL1        0.0658
    109 H          14.0189   -1.4705    0.0000 H       1  UNL1        0.0648
    110 H           8.6610   -4.3120    0.0000 H       1  UNL1        0.0813
    111 H          11.7700    0.1594    0.0000 H       1  UNL1        0.0938
    112 H          14.3875   -1.2614    0.0000 H       1  UNL1        0.0647
    113 H           7.2581   -4.5020    0.0000 H       1  UNL1        0.0670
    114 H           6.3920   -3.3820    0.0000 H       1  UNL1        0.0788
    115 H          14.3875    1.0202    0.0000 H       1  UNL1        0.0647
    116 H           6.9290   -2.0720    0.0000 H       1  UNL1        0.0632
    117 H          11.5020    1.0076    0.0000 H       1  UNL1        0.0584
    118 H          11.5020    1.8047    0.0000 H       1  UNL1        0.0584
    119 H           8.4194    1.6616    0.0000 H       1  UNL1        0.0588
    120 H           9.1097    2.0601    0.0000 H       1  UNL1        0.0588
    121 H           9.3371    1.9431    0.0000 H       1  UNL1        0.2100
    122 H          11.9922    2.2719    0.0000 H       1  UNL1        0.0597
    123 H          15.6519    1.3800    0.0000 H       1  UNL1        0.0584
    124 H          14.8548    1.3769    0.0000 H       1  UNL1        0.0584
    125 H           6.3730   -1.6550    0.0000 H       1  UNL1        0.0256
    126 H           5.5260   -1.8820    0.0000 H       1  UNL1        0.0256
    127 H           5.7530   -2.7289    0.0000 H       1  UNL1        0.0256
    128 H           6.3321   -0.8760    0.0000 H       1  UNL1        0.2102
    129 H           9.3302    3.7258    0.0000 H       1  UNL1        0.0949
    130 H          14.0068   -2.4714    0.0000 H       1  UNL1        0.2100
    131 H           9.6697    4.3139    0.0000 H       1  UNL1        0.0813
    132 H          13.5911    1.4914    0.0000 H       1  UNL1        0.0290
    133 H          14.2111    2.1114    0.0000 H       1  UNL1        0.0290
    134 H          11.9766    3.5852    0.0000 H       1  UNL1        0.0290
    135 H          11.7703    2.8153    0.0000 H       1  UNL1        0.0290
    136 H          15.7933   -0.8369    0.0000 H       1  UNL1        0.2100
    137 H           7.2581   -5.5020    0.0000 H       1  UNL1        0.2101
    138 H           8.2154    6.3201    0.0000 H       1  UNL1        0.0659
    139 H           7.7917    6.3234    0.0000 H       1  UNL1        0.0647
    140 H          10.8371    2.8091    0.0000 H       1  UNL1        0.2095
    141 H           6.6509    4.3475    0.0000 H       1  UNL1        0.0647
    142 H          13.3790    3.6940    0.0000 H       1  UNL1        0.0266
    143 H          12.9805    3.0038    0.0000 H       1  UNL1        0.0266
    144 H          13.3950    3.2766    0.0000 H       1  UNL1        0.0266
    145 H          13.6013    4.0465    0.0000 H       1  UNL1        0.0266
    146 H           2.8800    0.5401    0.0000 H       1  UNL1        0.0410
    147 H           4.2189    4.5706    0.0000 H       1  UNL1        0.0410
    148 H          10.3931   -5.0720    0.0000 H       1  UNL1        0.0410
    149 H          14.6691    3.0288    0.0000 H       1  UNL1        0.0265
    150 H          15.0677    3.7191    0.0000 H       1  UNL1        0.0265
    151 H          16.6589    0.7189    0.0000 H       1  UNL1        0.2095
    152 H           5.3760    4.6680    0.0000 H       1  UNL1        0.0584
    153 H           6.0678    4.2722    0.0000 H       1  UNL1        0.0584
    154 H           4.8678   -4.5020    0.0000 H       1  UNL1        0.0410
    155 H          13.3982    4.8044    0.0000 H       1  UNL1        0.0265
    156 H          12.8346    5.3680    0.0000 H       1  UNL1        0.0265
    157 H          15.0677    4.5038    0.0000 H       1  UNL1        0.0265
    158 H          14.6691    5.1940    0.0000 H       1  UNL1        0.0265
    159 H           2.8923   -0.9365    0.0000 H       1  UNL1        0.0270
    160 H           3.5826   -0.5380    0.0000 H       1  UNL1        0.0270
    161 H           2.9405    3.8315    0.0000 H       1  UNL1        0.0270
    162 H           3.6277    3.4276    0.0000 H       1  UNL1        0.0270
    163 H           8.7264    7.1809    0.0000 H       1  UNL1        0.2101
    164 H           9.7825   -6.5843    0.0000 H       1  UNL1        0.0270
    165 H          10.1810   -7.2746    0.0000 H       1  UNL1        0.0270
    166 H           3.5369    1.7161    0.0000 H       1  UNL1        0.0238
    167 H           2.6900    1.9431    0.0000 H       1  UNL1        0.0238
    168 H           2.4631    1.0961    0.0000 H       1  UNL1        0.0238
    169 H           5.5659    4.5793    0.0000 H       1  UNL1        0.0238
    170 H           5.3455    5.4280    0.0000 H       1  UNL1        0.0238
    171 H           4.4968    5.2076    0.0000 H       1  UNL1        0.0238
    172 H           7.2940    7.1920    0.0000 H       1  UNL1        0.2100
    173 H          12.9805    5.2191    0.0000 H       1  UNL1        0.0265
    174 H          13.3790    4.5288    0.0000 H       1  UNL1        0.0265
    175 H          11.5691   -5.7289    0.0000 H       1  UNL1        0.0238
    176 H          11.7961   -4.8820    0.0000 H       1  UNL1        0.0238
    177 H          10.9491   -4.6550    0.0000 H       1  UNL1        0.0238
    178 H           3.8634   -3.2170    0.0000 H       1  UNL1        0.0270
    179 H           3.0664   -3.2170    0.0000 H       1  UNL1        0.0270
    180 H          12.0766    5.5711    0.0000 H       1  UNL1        0.0263
    181 H          11.3067    5.3648    0.0000 H       1  UNL1        0.0263
    182 H           3.7109   -5.1920    0.0000 H       1  UNL1        0.0238
    183 H           4.3309   -5.8120    0.0000 H       1  UNL1        0.0238
    184 H           4.9509   -5.1920    0.0000 H       1  UNL1        0.0238
    185 H          14.2016    6.0038    0.0000 H       1  UNL1        0.0265
    186 H          13.8031    6.6940    0.0000 H       1  UNL1        0.0265
    187 H          11.2031    6.9072    0.0000 H       1  UNL1        0.0377
    188 H          10.4547    6.8086    0.0000 H       1  UNL1        0.0377
    189 H          13.1236    7.0864    0.0000 H       1  UNL1        0.0265
    190 H          12.3265    7.0864    0.0000 H       1  UNL1        0.0265
    191 H          11.5490    5.5745    0.0000 H       1  UNL1        0.0270
    192 H          12.2974    5.6730    0.0000 H       1  UNL1        0.0270
    193 H           2.0000    0.2941    0.0000 H       1  UNL1        0.0230
    194 H           1.3800   -0.3259    0.0000 H       1  UNL1        0.0230
    195 H           2.0000   -0.9459    0.0000 H       1  UNL1        0.0230
    196 H           3.5707    5.2147    0.0000 H       1  UNL1        0.0230
    197 H           2.7256    5.4482    0.0000 H       1  UNL1        0.0230
    198 H           2.4921    4.6030    0.0000 H       1  UNL1        0.0230
    199 H          10.9491   -7.7289    0.0000 H       1  UNL1        0.0230
    200 H          11.7961   -7.5020    0.0000 H       1  UNL1        0.0230
    201 H          11.5691   -6.6550    0.0000 H       1  UNL1        0.0230
    202 H           4.8345    5.7440    0.0000 H       1  UNL1        0.2095
    203 H           2.2889   -3.6550    0.0000 H       1  UNL1        0.0230
    204 H           2.0619   -4.5020    0.0000 H       1  UNL1        0.0230
    205 H           2.9089   -4.7289    0.0000 H       1  UNL1        0.0230
    206 H          10.6691    4.7405    0.0000 H       1  UNL1        0.0230
    207 H          10.6691    3.8637    0.0000 H       1  UNL1        0.0230
    208 H          11.5459    3.8637    0.0000 H       1  UNL1        0.0230
@<TRIPOS>BOND
     1     1    31    1
     2     1    36    1
     3     2    34    1
     4     2    35    1
     5    32     3    1
     6    40     3    1
     7     4    34    1
     8     4    37    1
     9     5    36    1
    10     5    42    1
    11     6    40    1
    12     6    50    1
    13     7    45    1
    14     7    49    1
    15    33     8    1
    16     8   121    1
    17     9    45    1
    18     9    53    1
    19    39    10    1
    20    10    63    1
    21    41    11    1
    22    11    64    1
    23    38    12    1
    24    12   128    1
    25    44    13    1
    26    13    66    1
    27    43    14    1
    28    14   130    1
    29    15    52    1
    30    15    56    1
    31    48    16    1
    32    16    70    1
    33    46    17    1
    34    17   136    1
    35    47    18    1
    36    18   137    1
    37    19    51    1
    38    19   140    1
    39    20    56    1
    40    20    62    1
    41    21    54    1
    42    21   151    1
    43    22    57    1
    44    22    86    1
    45    60    23    1
    46    23   163    1
    47    61    24    1
    48    24   172    1
    49    25    63    2
    50    26    64    2
    51    27    66    2
    52    28    70    2
    53    29    73    1
    54    29   202    1
    55    30    86    2
    56    31    32    1
    57    31    33    1
    58    31    97    1
    59    32    34    1
    60    32    98    1
    61    33    35    1
    62    33    99    1
    63    34   100    1
    64    35    51    1
    65    35   101    1
    66    36    38    1
    67    36   102    1
    68    37    43    1
    69    37    45    1
    70    37   103    1
    71    38    39    1
    72    38   104    1
    73    39    41    1
    74    39   105    1
    75    40    44    1
    76    40   106    1
    77    41    42    1
    78    41   107    1
    79    42    52    1
    80    42   108    1
    81    43    46    1
    82    43   109    1
    83    44    47    1
    84    44   110    1
    85    45   111    1
    86    46    49    1
    87    46   112    1
    88    47    48    1
    89    47   113    1
    90    48    50    1
    91    48   114    1
    92    49    54    1
    93    49   115    1
    94    50    55    1
    95    50   116    1
    96    51   117    1
    97    51   118    1
    98    52   119    1
    99    52   120    1
   100    53    58    1
   101    53    59    1
   102    53   122    1
   103    54   123    1
   104    54   124    1
   105    55   125    1
   106    55   126    1
   107    55   127    1
   108    56    57    1
   109    56   129    1
   110    57    60    1
   111    57   131    1
   112    58    65    1
   113    58   132    1
   114    58   133    1
   115    59    67    1
   116    59   134    1
   117    59   135    1
   118    60    61    1
   119    60   138    1
   120    61    62    1
   121    61   139    1
   122    62    73    1
   123    62   141    1
   124    63    68    1
   125    64    69    1
   126    65    72    1
   127    65   142    1
   128    65   143    1
   129    66    71    1
   130    67    75    1
   131    67   144    1
   132    67   145    1
   133    68    77    1
   134    68    80    1
   135    68   146    1
   136    69    78    1
   137    69    81    1
   138    69   147    1
   139    70    74    1
   140    71    79    1
   141    71    83    1
   142    71   148    1
   143    72    76    1
   144    72   149    1
   145    72   150    1
   146    73   152    1
   147    73   153    1
   148    74    84    1
   149    74    87    1
   150    74   154    1
   151    75    85    1
   152    75   155    1
   153    75   156    1
   154    76    82    1
   155    76   157    1
   156    76   158    1
   157    77    92    1
   158    77   159    1
   159    77   160    1
   160    78    93    1
   161    78   161    1
   162    78   162    1
   163    79    94    1
   164    79   164    1
   165    79   165    1
   166    80   166    1
   167    80   167    1
   168    80   168    1
   169    81   169    1
   170    81   170    1
   171    81   171    1
   172    82    88    1
   173    82   173    1
   174    82   174    1
   175    83   175    1
   176    83   176    1
   177    83   177    1
   178    84    95    1
   179    84   178    1
   180    84   179    1
   181    85    96    1
   182    85   180    1
   183    85   181    1
   184    86    89    1
   185    87   182    1
   186    87   183    1
   187    87   184    1
   188    88    90    1
   189    88   185    1
   190    88   186    1
   191    89    91    1
   192    89   187    1
   193    89   188    1
   194    90    91    1
   195    90   189    1
   196    90   190    1
   197    91   191    1
   198    91   192    1
   199    92   193    1
   200    92   194    1
   201    92   195    1
   202    93   196    1
   203    93   197    1
   204    93   198    1
   205    94   199    1
   206    94   200    1
   207    94   201    1
   208    95   203    1
   209    95   204    1
   210    95   205    1
   211    96   206    1
   212    96   207    1
   213    96   208    1
