@<TRIPOS>MOLECULE
IMPHY006557
 19 19 0 0 0
SMALL
GASTEIGER

@<TRIPOS>ATOM
      1 O           6.3301   -1.4050    0.0000 O.3     1  UNL1       -0.5067
      2 O           5.4641    2.0950    0.0000 O.3     1  UNL1       -0.4771
      3 O           2.8660   -2.4050    0.0000 O.3     1  UNL1       -0.4771
      4 O           3.7320    2.0950    0.0000 O.2     1  UNL1       -0.2451
      5 O           2.0000   -0.9050    0.0000 O.2     1  UNL1       -0.2451
      6 C           4.5981    0.5950    0.0000 C.ar    1  UNL1        0.0630
      7 C           3.7320   -0.9050    0.0000 C.ar    1  UNL1        0.0630
      8 C           3.7320    0.0950    0.0000 C.ar    1  UNL1       -0.0336
      9 C           5.4641    0.0950    0.0000 C.ar    1  UNL1       -0.0062
     10 C           4.5981   -1.4050    0.0000 C.ar    1  UNL1       -0.0062
     11 C           5.4641   -0.9050    0.0000 C.ar    1  UNL1        0.1184
     12 C           4.5981    1.5950    0.0000 C.2     1  UNL1        0.3369
     13 C           2.8660   -1.4050    0.0000 C.2     1  UNL1        0.3369
     14 H           3.1951    0.4050    0.0000 H       1  UNL1        0.0634
     15 H           6.0010    0.4050    0.0000 H       1  UNL1        0.0662
     16 H           4.5981   -2.0250    0.0000 H       1  UNL1        0.0662
     17 H           6.3301   -2.0250    0.0000 H       1  UNL1        0.2921
     18 H           5.4641    2.7150    0.0000 H       1  UNL1        0.2954
     19 H           2.3291   -2.7150    0.0000 H       1  UNL1        0.2954
@<TRIPOS>BOND
     1     1    11    1
     2     1    17    1
     3     2    12    1
     4     2    18    1
     5     3    13    1
     6     3    19    1
     7     4    12    2
     8     5    13    2
     9     6     8   ar
    10     6     9   ar
    11     6    12    1
    12     7     8   ar
    13     7    10   ar
    14     7    13    1
    15     8    14    1
    16     9    11   ar
    17     9    15    1
    18    10    11   ar
    19    10    16    1
