@<TRIPOS>MOLECULE
IMPHY002301
 36 37 0 0 0
SMALL
GASTEIGER

@<TRIPOS>ATOM
      1 O           4.6144   -2.1092    0.0000 O.3     1  UNL1       -0.3909
      2 O           3.7320    2.4254    0.0000 O.2     1  UNL1       -0.2974
      3 C           3.7320    0.4254    0.0000 C.3     1  UNL1       -0.0043
      4 C           3.7320   -0.5746    0.0000 C.3     1  UNL1        0.0130
      5 C           2.8660    0.9254    0.0000 C.3     1  UNL1        0.0244
      6 C           4.6260   -1.1093    0.0000 C.3     1  UNL1        0.0659
      7 C           2.0000    0.4254    0.0000 C.3     1  UNL1       -0.0393
      8 C           2.8660   -1.0746    0.0000 C.2     1  UNL1       -0.0705
      9 C           2.0000   -0.5746    0.0000 C.3     1  UNL1       -0.0310
     10 C           4.6260    0.9601    0.0000 C.2     1  UNL1       -0.0805
     11 C           5.5321   -0.5954    0.0000 C.3     1  UNL1       -0.0053
     12 C           5.5321    0.4462    0.0000 C.2     1  UNL1       -0.0738
     13 C           2.8660    1.9254    0.0000 C.2     1  UNL1        0.1340
     14 C           2.8660   -2.0746    0.0000 C.2     1  UNL1       -0.0991
     15 C           6.3961    0.9495    0.0000 C.3     1  UNL1       -0.0437
     16 C           2.0000    2.4254    0.0000 C.3     1  UNL1       -0.0058
     17 H           3.7255    1.2754    0.0000 H       1  UNL1        0.0356
     18 H           3.7255   -1.4246    0.0000 H       1  UNL1        0.0377
     19 H           2.3291    1.2354    0.0000 H       1  UNL1        0.0383
     20 H           5.1599   -1.4244    0.0000 H       1  UNL1        0.0602
     21 H           1.7880    1.0080    0.0000 H       1  UNL1        0.0275
     22 H           1.3894    0.3177    0.0000 H       1  UNL1        0.0275
     23 H           1.3894   -0.4669    0.0000 H       1  UNL1        0.0310
     24 H           1.7880   -1.1572    0.0000 H       1  UNL1        0.0310
     25 H           4.6188    1.5800    0.0000 H       1  UNL1        0.0575
     26 H           5.7411   -1.1791    0.0000 H       1  UNL1        0.0335
     27 H           6.1429   -0.4893    0.0000 H       1  UNL1        0.0335
     28 H           2.3291   -2.3846    0.0000 H       1  UNL1        0.0535
     29 H           3.4030   -2.3846    0.0000 H       1  UNL1        0.0535
     30 H           5.1477   -2.4254    0.0000 H       1  UNL1        0.2098
     31 H           6.7082    0.4138    0.0000 H       1  UNL1        0.0274
     32 H           6.9319    1.2616    0.0000 H       1  UNL1        0.0274
     33 H           6.0841    1.4853    0.0000 H       1  UNL1        0.0274
     34 H           2.3100    2.9623    0.0000 H       1  UNL1        0.0306
     35 H           1.4631    2.7354    0.0000 H       1  UNL1        0.0306
     36 H           1.6900    1.8885    0.0000 H       1  UNL1        0.0306
@<TRIPOS>BOND
     1     6     1    1
     2     1    30    1
     3     2    13    2
     4     3     4    1
     5     3     5    1
     6     3    10    1
     7     3    17    1
     8     4     6    1
     9     4     8    1
    10     4    18    1
    11     5     7    1
    12     5    13    1
    13     5    19    1
    14     6    11    1
    15     6    20    1
    16     7     9    1
    17     7    21    1
    18     7    22    1
    19     8     9    1
    20     8    14    2
    21     9    23    1
    22     9    24    1
    23    10    12    2
    24    10    25    1
    25    11    12    1
    26    11    26    1
    27    11    27    1
    28    12    15    1
    29    13    16    1
    30    14    28    1
    31    14    29    1
    32    15    31    1
    33    15    32    1
    34    15    33    1
    35    16    34    1
    36    16    35    1
    37    16    36    1
