@<TRIPOS>MOLECULE
IMPHY017629
 44 43 0 0 0
SMALL
GASTEIGER

@<TRIPOS>ATOM
      1 O           3.7320    0.0000    0.0000 O.3     1  UNL1       -0.4637
      2 O           8.0622    2.5000    0.0000 O.3     1  UNL1       -0.3851
      3 O           4.5981   -1.5000    0.0000 O.2     1  UNL1       -0.2508
      4 C           4.5981    1.5000    0.0000 C.3     1  UNL1        0.0320
      5 C           2.8660   -2.5000    0.0000 C.3     1  UNL1       -0.0367
      6 C           7.1962    2.0000    0.0000 C.3     1  UNL1        0.0786
      7 C           4.5981    0.5000    0.0000 C.3     1  UNL1        0.1023
      8 C           5.4641    2.0000    0.0000 C.2     1  UNL1       -0.0750
      9 C           2.8660   -1.5000    0.0000 C.3     1  UNL1        0.0473
     10 C           6.3301    1.5000    0.0000 C.2     1  UNL1       -0.0566
     11 C           3.7320    2.0000    0.0000 C.2     1  UNL1       -0.0697
     12 C           3.7320   -1.0000    0.0000 C.2     1  UNL1        0.3074
     13 C           2.0000   -3.0000    0.0000 C.3     1  UNL1       -0.0622
     14 C           3.7320   -3.0000    0.0000 C.3     1  UNL1       -0.0622
     15 C           7.6962    1.1340    0.0000 C.3     1  UNL1       -0.0327
     16 C           6.6962    2.8660    0.0000 C.3     1  UNL1       -0.0327
     17 C           2.8660    1.5000    0.0000 C.3     1  UNL1       -0.0434
     18 C           3.7320    3.0000    0.0000 C.2     1  UNL1       -0.0990
     19 H           4.5981    2.1200    0.0000 H       1  UNL1        0.0421
     20 H           2.8660   -3.1200    0.0000 H       1  UNL1        0.0301
     21 H           4.8101   -0.0826    0.0000 H       1  UNL1        0.0706
     22 H           5.2087    0.6077    0.0000 H       1  UNL1        0.0706
     23 H           5.4641    2.6200    0.0000 H       1  UNL1        0.0577
     24 H           2.6540   -0.9174    0.0000 H       1  UNL1        0.0380
     25 H           2.2554   -1.6077    0.0000 H       1  UNL1        0.0380
     26 H           6.3301    0.8800    0.0000 H       1  UNL1        0.0597
     27 H           1.6900   -2.4631    0.0000 H       1  UNL1        0.0232
     28 H           1.4631   -3.3100    0.0000 H       1  UNL1        0.0232
     29 H           2.3100   -3.5369    0.0000 H       1  UNL1        0.0232
     30 H           3.4220   -3.5369    0.0000 H       1  UNL1        0.0232
     31 H           4.2690   -3.3100    0.0000 H       1  UNL1        0.0232
     32 H           4.0420   -2.4631    0.0000 H       1  UNL1        0.0232
     33 H           7.1592    0.8240    0.0000 H       1  UNL1        0.0260
     34 H           8.0062    0.5970    0.0000 H       1  UNL1        0.0260
     35 H           8.2331    1.4440    0.0000 H       1  UNL1        0.0260
     36 H           7.2331    3.1760    0.0000 H       1  UNL1        0.0260
     37 H           6.3862    3.4030    0.0000 H       1  UNL1        0.0260
     38 H           6.1592    2.5560    0.0000 H       1  UNL1        0.0260
     39 H           2.5560    2.0369    0.0000 H       1  UNL1        0.0274
     40 H           2.3291    1.1900    0.0000 H       1  UNL1        0.0274
     41 H           3.1760    0.9631    0.0000 H       1  UNL1        0.0274
     42 H           4.2690    3.3100    0.0000 H       1  UNL1        0.0535
     43 H           3.1951    3.3100    0.0000 H       1  UNL1        0.0535
     44 H           8.5991    2.1900    0.0000 H       1  UNL1        0.2106
@<TRIPOS>BOND
     1     1     7    1
     2     1    12    1
     3     2     6    1
     4     2    44    1
     5     3    12    2
     6     4     7    1
     7     4     8    1
     8     4    11    1
     9     4    19    1
    10     5     9    1
    11     5    13    1
    12     5    14    1
    13     5    20    1
    14     6    10    1
    15     6    15    1
    16     6    16    1
    17     7    21    1
    18     7    22    1
    19     8    10    2
    20     8    23    1
    21     9    12    1
    22     9    24    1
    23     9    25    1
    24    10    26    1
    25    11    17    1
    26    11    18    2
    27    13    27    1
    28    13    28    1
    29    13    29    1
    30    14    30    1
    31    14    31    1
    32    14    32    1
    33    15    33    1
    34    15    34    1
    35    15    35    1
    36    16    36    1
    37    16    37    1
    38    16    38    1
    39    17    39    1
    40    17    40    1
    41    17    41    1
    42    18    42    1
    43    18    43    1
