@<TRIPOS>MOLECULE
IMPHY013376
 41 40 0 0 0
SMALL
GASTEIGER

@<TRIPOS>ATOM
      1 O           4.5981   -1.9050    0.0000 O.3     1  UNL1       -0.3918
      2 O          16.7224    1.0950    0.0000 O.3     1  UNL1       -0.3910
      3 C           4.5981   -0.9050    0.0000 C.3     1  UNL1        0.0555
      4 C           3.7320   -0.4050    0.0000 C.3     1  UNL1       -0.0271
      5 C           5.4641   -0.4050    0.0000 C.3     1  UNL1       -0.0234
      6 C           2.8660   -0.9050    0.0000 C.3     1  UNL1       -0.0536
      7 C           6.3301   -0.9050    0.0000 C.3     1  UNL1       -0.0321
      8 C           2.0000   -0.4050    0.0000 C.3     1  UNL1       -0.0652
      9 C           7.1962   -0.4050    0.0000 C.2     1  UNL1       -0.0839
     10 C           8.0622   -0.9050    0.0000 C.2     1  UNL1       -0.0651
     11 C           8.9282   -0.4050    0.0000 C.2     1  UNL1       -0.0538
     12 C           9.7942   -0.9050    0.0000 C.2     1  UNL1       -0.0106
     13 C          10.6603   -0.4050    0.0000 C.1     1  UNL1       -0.0603
     14 C          11.5263    0.0950    0.0000 C.1     1  UNL1       -0.0098
     15 C          15.8564    1.5950    0.0000 C.3     1  UNL1        0.0632
     16 C          14.9904    1.0950    0.0000 C.2     1  UNL1       -0.0507
     17 C          14.1244    1.5950    0.0000 C.2     1  UNL1       -0.0124
     18 C          12.3923    0.5950    0.0000 C.1     1  UNL1       -0.0098
     19 C          13.2583    1.0950    0.0000 C.1     1  UNL1       -0.0605
     20 H           5.1350   -1.2150    0.0000 H       1  UNL1        0.0593
     21 H           4.1306    0.0699    0.0000 H       1  UNL1        0.0290
     22 H           3.3335    0.0699    0.0000 H       1  UNL1        0.0290
     23 H           5.8626    0.0699    0.0000 H       1  UNL1        0.0293
     24 H           5.0656    0.0699    0.0000 H       1  UNL1        0.0293
     25 H           2.4675   -1.3800    0.0000 H       1  UNL1        0.0263
     26 H           3.2646   -1.3800    0.0000 H       1  UNL1        0.0263
     27 H           5.9316   -1.3800    0.0000 H       1  UNL1        0.0308
     28 H           6.7287   -1.3800    0.0000 H       1  UNL1        0.0308
     29 H           2.3100    0.1319    0.0000 H       1  UNL1        0.0230
     30 H           1.4631   -0.0950    0.0000 H       1  UNL1        0.0230
     31 H           1.6900   -0.9419    0.0000 H       1  UNL1        0.0230
     32 H           4.0611   -2.2150    0.0000 H       1  UNL1        0.2098
     33 H           7.1962    0.2150    0.0000 H       1  UNL1        0.0572
     34 H           8.0622   -1.5250    0.0000 H       1  UNL1        0.0615
     35 H           8.9282    0.2150    0.0000 H       1  UNL1        0.0624
     36 H           9.7942   -1.5250    0.0000 H       1  UNL1        0.0712
     37 H          16.2549    2.0700    0.0000 H       1  UNL1        0.0601
     38 H          15.4579    2.0700    0.0000 H       1  UNL1        0.0601
     39 H          14.9904    0.4750    0.0000 H       1  UNL1        0.0601
     40 H          14.1244    2.2150    0.0000 H       1  UNL1        0.0710
     41 H          17.2594    1.4050    0.0000 H       1  UNL1        0.2098
@<TRIPOS>BOND
     1     3     1    1
     2     1    32    1
     3     2    15    1
     4     2    41    1
     5     3     4    1
     6     3     5    1
     7     3    20    1
     8     4     6    1
     9     4    21    1
    10     4    22    1
    11     5     7    1
    12     5    23    1
    13     5    24    1
    14     6     8    1
    15     6    25    1
    16     6    26    1
    17     7     9    1
    18     7    27    1
    19     7    28    1
    20     8    29    1
    21     8    30    1
    22     8    31    1
    23     9    10    2
    24     9    33    1
    25    10    11    1
    26    10    34    1
    27    11    12    2
    28    11    35    1
    29    12    13    1
    30    12    36    1
    31    13    14    3
    32    14    18    1
    33    15    16    1
    34    15    37    1
    35    15    38    1
    36    16    17    2
    37    16    39    1
    38    17    19    1
    39    17    40    1
    40    18    19    3
