@<TRIPOS>MOLECULE
IMPHY016744
 24 24 0 0 0
SMALL
GASTEIGER

@<TRIPOS>ATOM
      1 O           3.7320    1.2500    0.0000 O.3     1  UNL1       -0.4677
      2 O           2.0000    1.2500    0.0000 O.2     1  UNL1       -0.2505
      3 C           2.8660   -0.2500    0.0000 C.3     1  UNL1        0.0564
      4 C           2.0000   -0.7500    0.0000 C.3     1  UNL1       -0.0401
      5 C           3.7320   -0.7500    0.0000 C.3     1  UNL1       -0.0401
      6 C           2.0000   -1.7500    0.0000 C.3     1  UNL1       -0.0523
      7 C           3.7320   -1.7500    0.0000 C.3     1  UNL1       -0.0523
      8 C           2.8660   -2.2500    0.0000 C.3     1  UNL1       -0.0530
      9 C           2.8660    0.7500    0.0000 C.2     1  UNL1        0.3099
     10 C           3.7320    2.2500    0.0000 C.3     1  UNL1        0.0817
     11 H           3.4030    0.0600    0.0000 H       1  UNL1        0.0413
     12 H           1.7880   -0.1674    0.0000 H       1  UNL1        0.0273
     13 H           1.3894   -0.8577    0.0000 H       1  UNL1        0.0273
     14 H           4.3426   -0.8577    0.0000 H       1  UNL1        0.0273
     15 H           3.9441   -0.1674    0.0000 H       1  UNL1        0.0273
     16 H           1.3894   -1.6423    0.0000 H       1  UNL1        0.0265
     17 H           1.7880   -2.3326    0.0000 H       1  UNL1        0.0265
     18 H           3.9441   -2.3326    0.0000 H       1  UNL1        0.0265
     19 H           4.3426   -1.6423    0.0000 H       1  UNL1        0.0265
     20 H           2.4675   -2.7250    0.0000 H       1  UNL1        0.0265
     21 H           3.2646   -2.7250    0.0000 H       1  UNL1        0.0265
     22 H           4.3520    2.2500    0.0000 H       1  UNL1        0.0661
     23 H           3.7320    2.8700    0.0000 H       1  UNL1        0.0661
     24 H           3.1120    2.2500    0.0000 H       1  UNL1        0.0661
@<TRIPOS>BOND
     1     1     9    1
     2     1    10    1
     3     2     9    2
     4     3     4    1
     5     3     5    1
     6     3     9    1
     7     3    11    1
     8     4     6    1
     9     4    12    1
    10     4    13    1
    11     5     7    1
    12     5    14    1
    13     5    15    1
    14     6     8    1
    15     6    16    1
    16     6    17    1
    17     7     8    1
    18     7    18    1
    19     7    19    1
    20     8    20    1
    21     8    21    1
    22    10    22    1
    23    10    23    1
    24    10    24    1
