@<TRIPOS>MOLECULE
IMPHY009932
 43 43 0 0 0
SMALL
GASTEIGER

@<TRIPOS>ATOM
      1 O           7.8916   -0.6031    0.0000 O.3     1  UNL1       -0.3661
      2 O           5.5963    1.3230    0.0000 O.3     1  UNL1       -0.3911
      3 C           7.0826   -0.0153    0.0000 C.3     1  UNL1        0.0648
      4 C           6.1316   -0.3243    0.0000 C.3     1  UNL1        0.0088
      5 C           7.3916    0.9358    0.0000 C.3     1  UNL1       -0.0233
      6 C           8.7006   -0.0153    0.0000 C.3     1  UNL1        0.0850
      7 C           8.3916    0.9358    0.0000 C.3     1  UNL1       -0.0180
      8 C           5.3884    0.3448    0.0000 C.3     1  UNL1        0.0636
      9 C           5.9236   -1.3024    0.0000 C.3     1  UNL1       -0.0577
     10 C           9.6517    0.2937    0.0000 C.3     1  UNL1       -0.0322
     11 C           9.2884   -0.8243    0.0000 C.2     1  UNL1       -0.0600
     12 C           4.4374    0.0358    0.0000 C.3     1  UNL1       -0.0080
     13 C           3.6942    0.7049    0.0000 C.2     1  UNL1       -0.0828
     14 C           8.8817   -1.7378    0.0000 C.2     1  UNL1       -0.1000
     15 C           2.7431    0.3959    0.0000 C.2     1  UNL1       -0.0795
     16 C           2.0000    1.0651    0.0000 C.3     1  UNL1       -0.0440
     17 C           2.5352   -0.5822    0.0000 C.3     1  UNL1       -0.0440
     18 H           6.9856   -0.6276    0.0000 H       1  UNL1        0.0600
     19 H           5.5419   -0.5159    0.0000 H       1  UNL1        0.0348
     20 H           7.4564    1.5524    0.0000 H       1  UNL1        0.0291
     21 H           6.7852    1.0647    0.0000 H       1  UNL1        0.0291
     22 H           8.9981    1.0647    0.0000 H       1  UNL1        0.0297
     23 H           8.3268    1.5524    0.0000 H       1  UNL1        0.0297
     24 H           4.9276    0.7597    0.0000 H       1  UNL1        0.0600
     25 H           5.3172   -1.1735    0.0000 H       1  UNL1        0.0234
     26 H           5.7947   -1.9089    0.0000 H       1  UNL1        0.0234
     27 H           6.5301   -1.4313    0.0000 H       1  UNL1        0.0234
     28 H           9.8433   -0.2959    0.0000 H       1  UNL1        0.0260
     29 H          10.2413    0.4853    0.0000 H       1  UNL1        0.0260
     30 H           9.4601    0.8834    0.0000 H       1  UNL1        0.0260
     31 H           9.9050   -0.7595    0.0000 H       1  UNL1        0.0594
     32 H           3.9488   -0.3459    0.0000 H       1  UNL1        0.0332
     33 H           4.7284   -0.5116    0.0000 H       1  UNL1        0.0332
     34 H           5.1356    1.7378    0.0000 H       1  UNL1        0.2098
     35 H           3.8231    1.3114    0.0000 H       1  UNL1        0.0572
     36 H           8.2651   -1.8026    0.0000 H       1  UNL1        0.0533
     37 H           9.2461   -2.2394    0.0000 H       1  UNL1        0.0533
     38 H           2.4149    1.5258    0.0000 H       1  UNL1        0.0274
     39 H           1.5392    1.4799    0.0000 H       1  UNL1        0.0274
     40 H           1.9288   -0.4533    0.0000 H       1  UNL1        0.0274
     41 H           1.5851    0.6043    0.0000 H       1  UNL1        0.0274
     42 H           2.4063   -1.1887    0.0000 H       1  UNL1        0.0274
     43 H           3.1417   -0.7111    0.0000 H       1  UNL1        0.0274
@<TRIPOS>BOND
     1     1     3    1
     2     1     6    1
     3     2     8    1
     4     2    34    1
     5     3     4    1
     6     3     5    1
     7     3    18    1
     8     4     8    1
     9     4     9    1
    10     4    19    1
    11     5     7    1
    12     5    20    1
    13     5    21    1
    14     6     7    1
    15     6    10    1
    16     6    11    1
    17     7    22    1
    18     7    23    1
    19     8    12    1
    20     8    24    1
    21     9    25    1
    22     9    26    1
    23     9    27    1
    24    10    28    1
    25    10    29    1
    26    10    30    1
    27    11    14    2
    28    11    31    1
    29    12    13    1
    30    12    32    1
    31    12    33    1
    32    13    15    2
    33    13    35    1
    34    14    36    1
    35    14    37    1
    36    15    16    1
    37    15    17    1
    38    16    38    1
    39    16    39    1
    40    16    41    1
    41    17    40    1
    42    17    42    1
    43    17    43    1
