@<TRIPOS>MOLECULE
IMPHY006837
 80 85 0 0 0
SMALL
GASTEIGER

@<TRIPOS>ATOM
      1 O           9.6033    1.8222    0.0000 O.3     1  UNL1       -0.3454
      2 O           8.5550    4.0623    0.0000 O.3     1  UNL1       -0.3627
      3 O          10.4096    0.2331    0.0000 O.3     1  UNL1       -0.3667
      4 O           2.0000   -3.7927    0.0000 O.2     1  UNL1       -0.2968
      5 C           7.3931   -0.7404    0.0000 C.3     1  UNL1       -0.0197
      6 C           7.3931   -1.7404    0.0000 C.3     1  UNL1       -0.0051
      7 C           8.3393   -0.4356    0.0000 C.3     1  UNL1       -0.0273
      8 C           5.6610   -1.7404    0.0000 C.3     1  UNL1       -0.0136
      9 C           4.7510   -2.2472    0.0000 C.3     1  UNL1       -0.0212
     10 C           6.5271   -2.2404    0.0000 C.2     1  UNL1       -0.0634
     11 C           6.5271   -0.2404    0.0000 C.3     1  UNL1       -0.0460
     12 C           8.3393   -2.0451    0.0000 C.3     1  UNL1       -0.0431
     13 C           8.9229   -1.2404    0.0000 C.3     1  UNL1       -0.0485
     14 C           5.6610   -0.7404    0.0000 C.3     1  UNL1       -0.0455
     15 C           8.6500    0.5149    0.0000 C.3     1  UNL1        0.0157
     16 C           4.7430   -3.2888    0.0000 C.3     1  UNL1       -0.0198
     17 C           7.3931    0.2596    0.0000 C.3     1  UNL1       -0.0585
     18 C           7.3931   -2.7404    0.0000 C.3     1  UNL1       -0.0553
     19 C           5.6451   -3.8096    0.0000 C.3     1  UNL1       -0.0302
     20 C           3.8242   -1.6832    0.0000 C.3     1  UNL1       -0.0401
     21 C           3.8076   -3.8386    0.0000 C.3     1  UNL1        0.0270
     22 C           6.5431   -3.2819    0.0000 C.2     1  UNL1       -0.0836
     23 C           8.0636    1.3249    0.0000 C.3     1  UNL1       -0.0163
     24 C           9.6016    0.8222    0.0000 C.3     1  UNL1        0.1598
     25 C           4.7587   -1.2473    0.0000 C.3     1  UNL1       -0.0587
     26 C           8.6528    2.1329    0.0000 C.3     1  UNL1        0.0909
     27 C           2.8763   -2.2111    0.0000 C.3     1  UNL1        0.0069
     28 C           2.8680   -3.2960    0.0000 C.2     1  UNL1        0.1392
     29 C           8.3454    3.0845    0.0000 C.3     1  UNL1        0.1139
     30 C           7.6034    3.7549    0.0000 C.3     1  UNL1        0.0930
     31 C           3.3109   -4.7065    0.0000 C.3     1  UNL1       -0.0528
     32 C           4.3109   -4.7026    0.0000 C.3     1  UNL1       -0.0528
     33 C           7.2960    4.7065    0.0000 C.3     1  UNL1       -0.0335
     34 C           6.9330    3.0129    0.0000 C.3     1  UNL1       -0.0335
     35 H           9.1790   -0.3038    0.0000 H       1  UNL1        0.0311
     36 H           6.3972   -1.3154    0.0000 H       1  UNL1        0.0351
     37 H           6.9256    0.2346    0.0000 H       1  UNL1        0.0271
     38 H           6.1285    0.2346    0.0000 H       1  UNL1        0.0271
     39 H           8.0883   -2.6120    0.0000 H       1  UNL1        0.0274
     40 H           8.8767   -2.3543    0.0000 H       1  UNL1        0.0274
     41 H           9.3838   -1.6551    0.0000 H       1  UNL1        0.0268
     42 H           9.3838   -0.8257    0.0000 H       1  UNL1        0.0268
     43 H           5.4490   -0.1578    0.0000 H       1  UNL1        0.0271
     44 H           5.0504   -0.8480    0.0000 H       1  UNL1        0.0271
     45 H           7.8102    0.3834    0.0000 H       1  UNL1        0.0353
     46 H           4.7463   -4.1388    0.0000 H       1  UNL1        0.0318
     47 H           8.0131    0.2596    0.0000 H       1  UNL1        0.0235
     48 H           7.3931    0.8796    0.0000 H       1  UNL1        0.0235
     49 H           6.7731    0.2596    0.0000 H       1  UNL1        0.0235
     50 H           6.7731   -2.7404    0.0000 H       1  UNL1        0.0238
     51 H           7.3931   -3.3604    0.0000 H       1  UNL1        0.0238
     52 H           8.0131   -2.7404    0.0000 H       1  UNL1        0.0238
     53 H           5.2478   -4.2856    0.0000 H       1  UNL1        0.0311
     54 H           6.0460   -4.2825    0.0000 H       1  UNL1        0.0311
     55 H           4.2324   -1.2165    0.0000 H       1  UNL1        0.0275
     56 H           3.4343   -1.2011    0.0000 H       1  UNL1        0.0275
     57 H           7.0836   -3.5857    0.0000 H       1  UNL1        0.0572
     58 H           7.6036    1.7406    0.0000 H       1  UNL1        0.0295
     59 H           7.6021    0.9108    0.0000 H       1  UNL1        0.0295
     60 H           9.5035    0.2100    0.0000 H       1  UNL1        0.0910
     61 H           5.3787   -1.2520    0.0000 H       1  UNL1        0.0235
     62 H           4.7635   -0.6273    0.0000 H       1  UNL1        0.0235
     63 H           4.1388   -1.2425    0.0000 H       1  UNL1        0.0235
     64 H           9.2548    2.7329    0.0000 H       1  UNL1        0.0624
     65 H           2.6718   -1.6258    0.0000 H       1  UNL1        0.0342
     66 H           2.2647   -2.3125    0.0000 H       1  UNL1        0.0342
     67 H           7.6317    2.6228    0.0000 H       1  UNL1        0.0651
     68 H           2.7728   -4.3986    0.0000 H       1  UNL1        0.0239
     69 H           3.0030   -5.2446    0.0000 H       1  UNL1        0.0239
     70 H           3.8490   -5.0144    0.0000 H       1  UNL1        0.0239
     71 H           3.7752   -5.0147    0.0000 H       1  UNL1        0.0239
     72 H           4.6230   -5.2384    0.0000 H       1  UNL1        0.0239
     73 H           4.8466   -4.3906    0.0000 H       1  UNL1        0.0239
     74 H          10.9764    0.4843    0.0000 H       1  UNL1        0.2125
     75 H           7.8860    4.8971    0.0000 H       1  UNL1        0.0258
     76 H           7.1055    5.2965    0.0000 H       1  UNL1        0.0258
     77 H           6.7060    4.5159    0.0000 H       1  UNL1        0.0258
     78 H           6.4730    3.4286    0.0000 H       1  UNL1        0.0258
     79 H           6.5173    2.5529    0.0000 H       1  UNL1        0.0258
     80 H           7.3930    2.5973    0.0000 H       1  UNL1        0.0258
@<TRIPOS>BOND
     1     1    24    1
     2     1    26    1
     3     2    29    1
     4     2    30    1
     5    24     3    1
     6     3    74    1
     7     4    28    2
     8     5     6    1
     9     5     7    1
    10     5    11    1
    11     5    17    1
    12     6    10    1
    13     6    12    1
    14     6    18    1
    15     7    13    1
    16     7    15    1
    17     7    35    1
    18     8     9    1
    19     8    10    1
    20     8    14    1
    21     8    36    1
    22     9    16    1
    23     9    20    1
    24     9    25    1
    25    10    22    2
    26    11    14    1
    27    11    37    1
    28    11    38    1
    29    12    13    1
    30    12    39    1
    31    12    40    1
    32    13    41    1
    33    13    42    1
    34    14    43    1
    35    14    44    1
    36    15    23    1
    37    15    24    1
    38    15    45    1
    39    16    19    1
    40    16    21    1
    41    16    46    1
    42    17    47    1
    43    17    48    1
    44    17    49    1
    45    18    50    1
    46    18    51    1
    47    18    52    1
    48    19    22    1
    49    19    53    1
    50    19    54    1
    51    20    27    1
    52    20    55    1
    53    20    56    1
    54    21    28    1
    55    21    31    1
    56    21    32    1
    57    22    57    1
    58    23    26    1
    59    23    58    1
    60    23    59    1
    61    24    60    1
    62    25    61    1
    63    25    62    1
    64    25    63    1
    65    26    29    1
    66    26    64    1
    67    27    28    1
    68    27    65    1
    69    27    66    1
    70    29    30    1
    71    29    67    1
    72    30    33    1
    73    30    34    1
    74    31    68    1
    75    31    69    1
    76    31    70    1
    77    32    71    1
    78    32    72    1
    79    32    73    1
    80    33    75    1
    81    33    76    1
    82    33    77    1
    83    34    78    1
    84    34    79    1
    85    34    80    1
