@<TRIPOS>MOLECULE
IMPHY010582
 64 68 0 0 0
SMALL
GASTEIGER

@<TRIPOS>ATOM
      1 O           2.6660    0.6047    0.0000 O.3     1  UNL1       -0.3656
      2 O           2.5369    2.7718    0.0000 O.3     1  UNL1       -0.3886
      3 O           6.9052    2.2687    0.0000 O.2     1  UNL1       -0.2965
      4 O           6.8671   -0.7282    0.0000 O.3     1  UNL1       -0.4679
      5 O           5.1350   -0.7282    0.0000 O.2     1  UNL1       -0.2509
      6 O           3.4890   -4.3411    0.0000 O.2     1  UNL1       -0.4707
      7 C           4.2690    0.7718    0.0000 C.3     1  UNL1        0.0244
      8 C           5.1350    1.2718    0.0000 C.3     1  UNL1       -0.0066
      9 C           5.1350    2.2718    0.0000 C.3     1  UNL1        0.0396
     10 C           3.4030    1.2718    0.0000 C.3     1  UNL1        0.0952
     11 C           4.2690    2.7718    0.0000 C.3     1  UNL1        0.0207
     12 C           4.0598   -0.2000    0.0000 C.2     1  UNL1       -0.0329
     13 C           3.4030    2.2718    0.0000 C.3     1  UNL1        0.0895
     14 C           3.0711   -0.3030    0.0000 C.3     1  UNL1        0.0819
     15 C           5.1350    0.2718    0.0000 C.3     1  UNL1       -0.0530
     16 C           6.0010    0.7718    0.0000 C.3     1  UNL1        0.0495
     17 C           2.8673   -1.2700    0.0000 C.3     1  UNL1       -0.0121
     18 C           4.4586   -1.1041    0.0000 C.2     1  UNL1       -0.0628
     19 C           3.7231   -1.7641    0.0000 C.3     1  UNL1        0.0109
     20 C           6.0450    2.7787    0.0000 C.2     1  UNL1        0.1438
     21 C           6.0010    1.7718    0.0000 C.3     1  UNL1       -0.0519
     22 C           4.2529    3.8133    0.0000 C.2     1  UNL1       -0.0696
     23 C           6.0530    3.8203    0.0000 C.3     1  UNL1        0.0248
     24 C           5.1510    4.3411    0.0000 C.2     1  UNL1       -0.0776
     25 C           5.4362   -1.3146    0.0000 C.3     1  UNL1       -0.0429
     26 C           3.8267   -2.7587    0.0000 C.ar    1  UNL1       -0.0025
     27 C           6.0010   -0.2282    0.0000 C.2     1  UNL1        0.3071
     28 C           3.3812    4.3033    0.0000 C.3     1  UNL1       -0.0434
     29 C           4.6923   -3.2594    0.0000 C.ar    1  UNL1       -0.0202
     30 C           3.0830   -3.4272    0.0000 C.ar    1  UNL1        0.0954
     31 C           4.4836   -4.2374    0.0000 C.ar    1  UNL1        0.0920
     32 C           6.8671   -1.7282    0.0000 C.3     1  UNL1        0.0817
     33 H           5.6720    1.5818    0.0000 H       1  UNL1        0.0325
     34 H           2.6260    1.6166    0.0000 H       1  UNL1        0.0631
     35 H           3.7297    3.0777    0.0000 H       1  UNL1        0.0381
     36 H           3.4030    2.8918    0.0000 H       1  UNL1        0.0626
     37 H           2.4545   -0.3686    0.0000 H       1  UNL1        0.0644
     38 H           4.8250   -0.2651    0.0000 H       1  UNL1        0.0239
     39 H           5.6720   -0.0382    0.0000 H       1  UNL1        0.0239
     40 H           5.4450    0.8088    0.0000 H       1  UNL1        0.0239
     41 H           6.6116    0.6642    0.0000 H       1  UNL1        0.0381
     42 H           6.2131    1.3544    0.0000 H       1  UNL1        0.0381
     43 H           2.2774   -1.0791    0.0000 H       1  UNL1        0.0302
     44 H           2.6154   -1.8365    0.0000 H       1  UNL1        0.0302
     45 H           3.2030   -2.1015    0.0000 H       1  UNL1        0.0396
     46 H           5.6910    1.2349    0.0000 H       1  UNL1        0.0239
     47 H           6.5380    1.4618    0.0000 H       1  UNL1        0.0239
     48 H           6.3110    2.3088    0.0000 H       1  UNL1        0.0239
     49 H           6.6631    3.7095    0.0000 H       1  UNL1        0.0384
     50 H           6.2666    4.4023    0.0000 H       1  UNL1        0.0384
     51 H           5.1486    4.9611    0.0000 H       1  UNL1        0.0576
     52 H           2.0000    2.4618    0.0000 H       1  UNL1        0.2099
     53 H           5.3057   -1.9207    0.0000 H       1  UNL1        0.0275
     54 H           6.0423   -1.4451    0.0000 H       1  UNL1        0.0275
     55 H           5.5667   -0.7085    0.0000 H       1  UNL1        0.0275
     56 H           3.6850    4.8438    0.0000 H       1  UNL1        0.0274
     57 H           2.8407    4.6071    0.0000 H       1  UNL1        0.0274
     58 H           3.0774    3.7628    0.0000 H       1  UNL1        0.0274
     59 H           5.2589   -3.0078    0.0000 H       1  UNL1        0.0652
     60 H           2.4767   -3.2978    0.0000 H       1  UNL1        0.1032
     61 H           4.8980   -4.6985    0.0000 H       1  UNL1        0.1029
     62 H           6.2471   -1.7282    0.0000 H       1  UNL1        0.0661
     63 H           6.8671   -2.3482    0.0000 H       1  UNL1        0.0661
     64 H           7.4871   -1.7282    0.0000 H       1  UNL1        0.0661
@<TRIPOS>BOND
     1     1    10    1
     2     1    14    1
     3    13     2    1
     4     2    52    1
     5     3    20    2
     6     4    27    1
     7     4    32    1
     8     5    27    2
     9     6    30   ar
    10     6    31   ar
    11     7     8    1
    12     7    10    1
    13     7    12    1
    14     7    15    1
    15     8     9    1
    16     8    16    1
    17     8    33    1
    18     9    11    1
    19     9    20    1
    20     9    21    1
    21    10    13    1
    22    10    34    1
    23    11    13    1
    24    11    22    1
    25    11    35    1
    26    12    14    1
    27    12    18    2
    28    13    36    1
    29    14    17    1
    30    14    37    1
    31    15    38    1
    32    15    39    1
    33    15    40    1
    34    16    27    1
    35    16    41    1
    36    16    42    1
    37    17    19    1
    38    17    43    1
    39    17    44    1
    40    18    19    1
    41    18    25    1
    42    19    26    1
    43    19    45    1
    44    20    23    1
    45    21    46    1
    46    21    47    1
    47    21    48    1
    48    22    24    2
    49    22    28    1
    50    23    24    1
    51    23    49    1
    52    23    50    1
    53    24    51    1
    54    25    53    1
    55    25    54    1
    56    25    55    1
    57    26    29   ar
    58    26    30   ar
    59    28    56    1
    60    28    57    1
    61    28    58    1
    62    29    31   ar
    63    29    59    1
    64    30    60    1
    65    31    61    1
    66    32    62    1
    67    32    63    1
    68    32    64    1
