@<TRIPOS>MOLECULE
IMPHY005481
 49 53 0 0 0
SMALL
GASTEIGER

@<TRIPOS>ATOM
      1 O           6.6555   -2.1870    0.0000 O.3     1  UNL1       -0.4646
      2 O           7.0156   -0.4928    0.0000 O.2     1  UNL1       -0.2453
      3 N           2.6254   -0.4450    0.0000 N.3     1  UNL1       -0.2937
      4 N           5.7049    0.5556    0.0000 N.pl3   1  UNL1       -0.3164
      5 C           4.1652    0.0553    0.0000 C.3     1  UNL1        0.0533
      6 C           3.5397   -0.6393    0.0000 C.3     1  UNL1        0.0349
      7 C           3.8286   -1.5283    0.0000 C.3     1  UNL1        0.0095
      8 C           3.7801    1.0909    0.0000 C.3     1  UNL1       -0.0237
      9 C           5.0795   -0.1390    0.0000 C.2     1  UNL1        0.0304
     10 C           2.3366    0.4440    0.0000 C.3     1  UNL1        0.0007
     11 C           4.7429   -1.7226    0.0000 C.3     1  UNL1       -0.0089
     12 C           4.5018    1.6389    0.0000 C.ar    1  UNL1       -0.0130
     13 C           5.3683   -1.0280    0.0000 C.2     1  UNL1        0.0553
     14 C           4.1376   -2.4794    0.0000 C.3     1  UNL1       -0.0450
     15 C           3.2031   -2.2229    0.0000 C.2     1  UNL1       -0.0787
     16 C           2.0000   -1.1396    0.0000 C.3     1  UNL1        0.0175
     17 C           5.4161    1.4446    0.0000 C.ar    1  UNL1        0.0353
     18 C           2.2888   -2.0286    0.0000 C.2     1  UNL1       -0.0734
     19 C           4.2129    2.5279    0.0000 C.ar    1  UNL1       -0.0559
     20 C           3.4685   -3.2225    0.0000 C.3     1  UNL1       -0.0644
     21 C           6.3465   -1.2359    0.0000 C.2     1  UNL1        0.3364
     22 C           6.0415    2.1392    0.0000 C.ar    1  UNL1       -0.0403
     23 C           4.8384    3.2225    0.0000 C.ar    1  UNL1       -0.0614
     24 C           5.7527    3.0282    0.0000 C.ar    1  UNL1       -0.0600
     25 C           7.6336   -2.3949    0.0000 C.3     1  UNL1        0.0820
     26 H           3.2771    0.1691    0.0000 H       1  UNL1        0.0484
     27 H           4.3564    1.3196    0.0000 H       1  UNL1        0.0290
     28 H           3.5389    1.6621    0.0000 H       1  UNL1        0.0290
     29 H           2.1034    1.0184    0.0000 H       1  UNL1        0.0427
     30 H           1.7542    0.2314    0.0000 H       1  UNL1        0.0427
     31 H           4.5106   -2.2975    0.0000 H       1  UNL1        0.0325
     32 H           5.2687   -2.0512    0.0000 H       1  UNL1        0.0325
     33 H           4.5193   -2.9679    0.0000 H       1  UNL1        0.0272
     34 H           4.6850   -2.1883    0.0000 H       1  UNL1        0.0272
     35 H           3.3947   -2.8126    0.0000 H       1  UNL1        0.0576
     36 H           1.6183   -0.6510    0.0000 H       1  UNL1        0.0470
     37 H           1.4526   -1.4307    0.0000 H       1  UNL1        0.0470
     38 H           6.3114    0.4267    0.0000 H       1  UNL1        0.1519
     39 H           1.8740   -2.4893    0.0000 H       1  UNL1        0.0582
     40 H           3.6065    2.6568    0.0000 H       1  UNL1        0.0621
     41 H           3.0077   -2.8076    0.0000 H       1  UNL1        0.0230
     42 H           3.0536   -3.6832    0.0000 H       1  UNL1        0.0230
     43 H           3.9292   -3.6374    0.0000 H       1  UNL1        0.0230
     44 H           6.6480    2.0103    0.0000 H       1  UNL1        0.0636
     45 H           4.6468    3.8122    0.0000 H       1  UNL1        0.0618
     46 H           6.1676    3.4889    0.0000 H       1  UNL1        0.0618
     47 H           7.5047   -3.0013    0.0000 H       1  UNL1        0.0661
     48 H           8.2401   -2.5238    0.0000 H       1  UNL1        0.0661
     49 H           7.7625   -1.7884    0.0000 H       1  UNL1        0.0661
@<TRIPOS>BOND
     1     1    21    1
     2     1    25    1
     3     2    21    2
     4     3     6    1
     5     3    10    1
     6     3    16    1
     7     4     9    1
     8     4    17    1
     9     4    38    1
    10     5     6    1
    11     5     8    1
    12     5     9    1
    13     5    12    1
    14     6     7    1
    15     6    26    1
    16     7    11    1
    17     7    14    1
    18     7    15    1
    19     8    10    1
    20     8    27    1
    21     8    28    1
    22     9    13    2
    23    10    29    1
    24    10    30    1
    25    11    13    1
    26    11    31    1
    27    11    32    1
    28    12    17   ar
    29    12    19   ar
    30    13    21    1
    31    14    20    1
    32    14    33    1
    33    14    34    1
    34    15    18    2
    35    15    35    1
    36    16    18    1
    37    16    36    1
    38    16    37    1
    39    17    22   ar
    40    18    39    1
    41    19    23   ar
    42    19    40    1
    43    20    41    1
    44    20    42    1
    45    20    43    1
    46    22    24   ar
    47    22    44    1
    48    23    24   ar
    49    23    45    1
    50    24    46    1
    51    25    47    1
    52    25    48    1
    53    25    49    1
