@<TRIPOS>MOLECULE
IMPHY000002
 129 136 0 0 0
SMALL
GASTEIGER

@<TRIPOS>ATOM
      1 O          15.1835    2.4442    0.0000 O.3     1  UNL1       -0.3601
      2 O          14.3037   -1.0528    0.0000 O.3     1  UNL1       -0.4534
      3 O          12.5755   -0.0462    0.0000 O.3     1  UNL1       -0.4570
      4 O           9.7942    3.5169    0.0000 O.3     1  UNL1       -0.3480
      5 O          16.6524   -1.5130    0.0000 O.2     1  UNL1       -0.2974
      6 O          13.4358   -1.5495    0.0000 O.2     1  UNL1       -0.2505
      7 O          15.8004   -1.9246    0.0000 O.2     1  UNL1       -0.2449
      8 O           8.0622    3.5169    0.0000 O.3     1  UNL1       -0.3456
      9 O           8.0622    0.5169    0.0000 O.3     1  UNL1       -0.3770
     10 O           6.3301    1.5169    0.0000 O.3     1  UNL1       -0.3403
     11 O           5.4641    3.0169    0.0000 O.3     1  UNL1       -0.3431
     12 O           4.5981    0.5169    0.0000 O.3     1  UNL1       -0.3841
     13 O           2.8660    1.5169    0.0000 O.3     1  UNL1       -0.3744
     14 O           2.8660    3.5169    0.0000 O.3     1  UNL1       -0.3866
     15 C          15.1794    1.4438    0.0000 C.3     1  UNL1        0.1090
     16 C          14.3153    1.9471    0.0000 C.3     1  UNL1        0.1066
     17 C          15.1755    0.4438    0.0000 C.3     1  UNL1        0.0496
     18 C          13.4473    1.4505    0.0000 C.3     1  UNL1        0.0371
     19 C          12.5393    1.9608    0.0000 C.3     1  UNL1       -0.0200
     20 C          16.1267    1.7449    0.0000 C.3     1  UNL1       -0.0197
     21 C          14.3076   -0.0528    0.0000 C.3     1  UNL1        0.1491
     22 C          14.3353    2.9886    0.0000 C.3     1  UNL1       -0.0203
     23 C          13.4435    0.4505    0.0000 C.3     1  UNL1        0.1464
     24 C          16.1205    0.1354    0.0000 C.3     1  UNL1        0.0289
     25 C          12.5353    3.0025    0.0000 C.3     1  UNL1       -0.0327
     26 C          16.7073    0.9379    0.0000 C.3     1  UNL1       -0.0401
     27 C          13.4393    3.5198    0.0000 C.3     1  UNL1       -0.0469
     28 C          15.1717   -0.5562    0.0000 C.3     1  UNL1       -0.0527
     29 C          11.6103    1.4003    0.0000 C.3     1  UNL1       -0.0446
     30 C          12.5431    0.9608    0.0000 C.3     1  UNL1       -0.0588
     31 C          11.6020    3.5558    0.0000 C.3     1  UNL1       -0.0232
     32 C          10.6644    1.9319    0.0000 C.3     1  UNL1       -0.0260
     33 C          16.8623   -0.5353    0.0000 C.2     1  UNL1        0.1341
     34 C          10.6603    3.0169    0.0000 C.3     1  UNL1        0.0620
     35 C          17.8140   -0.2283    0.0000 C.3     1  UNL1       -0.0058
     36 C          12.5717   -1.0462    0.0000 C.2     1  UNL1        0.3103
     37 C          14.8004   -1.9208    0.0000 C.2     1  UNL1        0.3396
     38 C          11.7037   -1.5428    0.0000 C.3     1  UNL1        0.0534
     39 C           8.9282    3.0169    0.0000 C.3     1  UNL1        0.1624
     40 C          14.2970   -2.7849    0.0000 C.ar    1  UNL1        0.0590
     41 C          10.8396   -1.0395    0.0000 C.3     1  UNL1       -0.0432
     42 C           8.9282    2.0169    0.0000 C.3     1  UNL1        0.0272
     43 C          11.6999   -2.5428    0.0000 C.3     1  UNL1       -0.0523
     44 C          14.7937   -3.6528    0.0000 C.ar    1  UNL1       -0.0478
     45 C          13.2971   -2.7811    0.0000 C.ar    1  UNL1       -0.0478
     46 C           8.0622    1.5169    0.0000 C.3     1  UNL1        0.0915
     47 C           7.1962    3.0169    0.0000 C.3     1  UNL1        0.0875
     48 C           7.1962    2.0169    0.0000 C.3     1  UNL1        0.1138
     49 C           9.9717   -1.5361    0.0000 C.3     1  UNL1       -0.0645
     50 C          14.2904   -4.5169    0.0000 C.ar    1  UNL1       -0.0610
     51 C          12.7938   -3.6452    0.0000 C.ar    1  UNL1       -0.0610
     52 C           6.3301    3.5169    0.0000 C.3     1  UNL1       -0.0361
     53 C          13.2904   -4.5131    0.0000 C.ar    1  UNL1       -0.0617
     54 C           8.9282    0.0169    0.0000 C.3     1  UNL1        0.0369
     55 C           5.4641    2.0169    0.0000 C.3     1  UNL1        0.1883
     56 C           4.5981    1.5169    0.0000 C.3     1  UNL1        0.1344
     57 C           3.7320    2.0169    0.0000 C.3     1  UNL1        0.1170
     58 C           4.5981    3.5169    0.0000 C.3     1  UNL1        0.0873
     59 C           3.7320    3.0169    0.0000 C.3     1  UNL1        0.1097
     60 C           4.5981    4.5169    0.0000 C.3     1  UNL1       -0.0361
     61 C           2.0000    2.0169    0.0000 C.3     1  UNL1        0.0370
     62 H          14.1818    1.0226    0.0000 H       1  UNL1        0.0372
     63 H          16.6653    2.0520    0.0000 H       1  UNL1        0.0294
     64 H          15.8779    2.3128    0.0000 H       1  UNL1        0.0294
     65 H          13.7694   -0.3608    0.0000 H       1  UNL1        0.0778
     66 H          14.9440    2.8707    0.0000 H       1  UNL1        0.0294
     67 H          14.5556    3.5681    0.0000 H       1  UNL1        0.0294
     68 H          12.9077    0.7626    0.0000 H       1  UNL1        0.0775
     69 H          15.8096   -0.4010    0.0000 H       1  UNL1        0.0385
     70 H          12.5418    3.8524    0.0000 H       1  UNL1        0.0307
     71 H          17.1665    0.5214    0.0000 H       1  UNL1        0.0273
     72 H          17.1697    1.3509    0.0000 H       1  UNL1        0.0273
     73 H          13.8421    3.9911    0.0000 H       1  UNL1        0.0269
     74 H          13.0439    3.9973    0.0000 H       1  UNL1        0.0269
     75 H          14.5517   -0.5538    0.0000 H       1  UNL1        0.0237
     76 H          15.1693   -1.1762    0.0000 H       1  UNL1        0.0237
     77 H          15.7916   -0.5586    0.0000 H       1  UNL1        0.0237
     78 H          11.2185    0.9198    0.0000 H       1  UNL1        0.0272
     79 H          12.0167    0.9321    0.0000 H       1  UNL1        0.0272
     80 H          11.9231    0.9585    0.0000 H       1  UNL1        0.0235
     81 H          12.5455    0.3408    0.0000 H       1  UNL1        0.0235
     82 H          13.1631    0.9632    0.0000 H       1  UNL1        0.0235
     83 H          12.0048    4.0271    0.0000 H       1  UNL1        0.0293
     84 H          11.2065    4.0333    0.0000 H       1  UNL1        0.0293
     85 H          10.0532    2.0357    0.0000 H       1  UNL1        0.0290
     86 H          10.4576    1.3474    0.0000 H       1  UNL1        0.0290
     87 H          10.6614    3.6369    0.0000 H       1  UNL1        0.0597
     88 H          18.0043   -0.8183    0.0000 H       1  UNL1        0.0306
     89 H          18.4040   -0.0379    0.0000 H       1  UNL1        0.0306
     90 H          17.6236    0.3618    0.0000 H       1  UNL1        0.0306
     91 H          12.4382   -1.9706    0.0000 H       1  UNL1        0.0410
     92 H           9.4651    2.7069    0.0000 H       1  UNL1        0.0910
     93 H          11.2400   -0.5661    0.0000 H       1  UNL1        0.0270
     94 H          10.4429   -0.5630    0.0000 H       1  UNL1        0.0270
     95 H           9.1403    1.4343    0.0000 H       1  UNL1        0.0340
     96 H           9.5388    2.1246    0.0000 H       1  UNL1        0.0340
     97 H          11.0799   -2.5404    0.0000 H       1  UNL1        0.0238
     98 H          11.6975   -3.1628    0.0000 H       1  UNL1        0.0238
     99 H          12.3199   -2.5452    0.0000 H       1  UNL1        0.0238
    100 H          15.4137   -3.6552    0.0000 H       1  UNL1        0.0626
    101 H          12.9892   -2.2430    0.0000 H       1  UNL1        0.0626
    102 H           7.5252    1.2069    0.0000 H       1  UNL1        0.0624
    103 H           7.1962    3.6369    0.0000 H       1  UNL1        0.0621
    104 H           6.6592    2.3269    0.0000 H       1  UNL1        0.0649
    105 H           9.6638   -0.9980    0.0000 H       1  UNL1        0.0230
    106 H           9.4336   -1.8441    0.0000 H       1  UNL1        0.0230
    107 H          10.2796   -2.0743    0.0000 H       1  UNL1        0.0230
    108 H          14.5983   -5.0550    0.0000 H       1  UNL1        0.0618
    109 H          12.1738   -3.6428    0.0000 H       1  UNL1        0.0618
    110 H           6.6401    4.0538    0.0000 H       1  UNL1        0.0255
    111 H           5.7932    3.8269    0.0000 H       1  UNL1        0.0255
    112 H           6.0201    2.9800    0.0000 H       1  UNL1        0.0255
    113 H          12.9783   -5.0488    0.0000 H       1  UNL1        0.0618
    114 H           8.6182   -0.5200    0.0000 H       1  UNL1        0.0524
    115 H           9.4651   -0.2931    0.0000 H       1  UNL1        0.0524
    116 H           9.2382    0.5538    0.0000 H       1  UNL1        0.0524
    117 H           5.4641    1.3969    0.0000 H       1  UNL1        0.0938
    118 H           4.0611    1.2069    0.0000 H       1  UNL1        0.0671
    119 H           3.1951    2.3269    0.0000 H       1  UNL1        0.0650
    120 H           5.1350    3.8269    0.0000 H       1  UNL1        0.0621
    121 H           3.7320    3.6369    0.0000 H       1  UNL1        0.0646
    122 H           4.0611    0.2069    0.0000 H       1  UNL1        0.2101
    123 H           5.2181    4.5169    0.0000 H       1  UNL1        0.0255
    124 H           4.5981    5.1369    0.0000 H       1  UNL1        0.0255
    125 H           3.9781    4.5169    0.0000 H       1  UNL1        0.0255
    126 H           2.8660    4.1369    0.0000 H       1  UNL1        0.2100
    127 H           2.3100    2.5538    0.0000 H       1  UNL1        0.0524
    128 H           1.4631    2.3269    0.0000 H       1  UNL1        0.0524
    129 H           1.6900    1.4800    0.0000 H       1  UNL1        0.0524
@<TRIPOS>BOND
     1    15     1    1
     2    16     1    1
     3    21     2    1
     4     2    37    1
     5    23     3    1
     6     3    36    1
     7    34     4    1
     8    39     4    1
     9     5    33    2
    10     6    36    2
    11     7    37    2
    12     8    39    1
    13     8    47    1
    14    46     9    1
    15     9    54    1
    16    48    10    1
    17    55    10    1
    18    11    55    1
    19    11    58    1
    20    56    12    1
    21    12   122    1
    22    57    13    1
    23    13    61    1
    24    59    14    1
    25    14   126    1
    26    15    16    1
    27    15    17    1
    28    15    20    1
    29    16    18    1
    30    16    22    1
    31    17    21    1
    32    17    24    1
    33    17    28    1
    34    18    19    1
    35    18    23    1
    36    18    62    1
    37    19    25    1
    38    19    29    1
    39    19    30    1
    40    20    26    1
    41    20    63    1
    42    20    64    1
    43    21    23    1
    44    21    65    1
    45    22    27    1
    46    22    66    1
    47    22    67    1
    48    23    68    1
    49    24    26    1
    50    24    33    1
    51    24    69    1
    52    25    27    1
    53    25    31    1
    54    25    70    1
    55    26    71    1
    56    26    72    1
    57    27    73    1
    58    27    74    1
    59    28    75    1
    60    28    76    1
    61    28    77    1
    62    29    32    1
    63    29    78    1
    64    29    79    1
    65    30    80    1
    66    30    81    1
    67    30    82    1
    68    31    34    1
    69    31    83    1
    70    31    84    1
    71    32    34    1
    72    32    85    1
    73    32    86    1
    74    33    35    1
    75    34    87    1
    76    35    88    1
    77    35    89    1
    78    35    90    1
    79    36    38    1
    80    37    40    1
    81    38    41    1
    82    38    43    1
    83    38    91    1
    84    39    42    1
    85    39    92    1
    86    40    44   ar
    87    40    45   ar
    88    41    49    1
    89    41    93    1
    90    41    94    1
    91    42    46    1
    92    42    95    1
    93    42    96    1
    94    43    97    1
    95    43    98    1
    96    43    99    1
    97    44    50   ar
    98    44   100    1
    99    45    51   ar
   100    45   101    1
   101    46    48    1
   102    46   102    1
   103    47    48    1
   104    47    52    1
   105    47   103    1
   106    48   104    1
   107    49   105    1
   108    49   106    1
   109    49   107    1
   110    50    53   ar
   111    50   108    1
   112    51    53   ar
   113    51   109    1
   114    52   110    1
   115    52   111    1
   116    52   112    1
   117    53   113    1
   118    54   114    1
   119    54   115    1
   120    54   116    1
   121    55    56    1
   122    55   117    1
   123    56    57    1
   124    56   118    1
   125    57    59    1
   126    57   119    1
   127    58    59    1
   128    58    60    1
   129    58   120    1
   130    59   121    1
   131    60   123    1
   132    60   124    1
   133    60   125    1
   134    61   127    1
   135    61   128    1
   136    61   129    1
