@<TRIPOS>MOLECULE
IMPHY005536
 57 57 0 0 0
SMALL
GASTEIGER

@<TRIPOS>ATOM
      1 O           5.4641   -6.4400    0.0000 O.3     1  UNL1       -0.5066
      2 O           2.0000   -6.4400    0.0000 O.3     1  UNL1       -0.5066
      3 C           5.4641   -1.4400    0.0000 C.3     1  UNL1       -0.0530
      4 C           5.4641   -0.4400    0.0000 C.3     1  UNL1       -0.0528
      5 C           4.5981   -1.9400    0.0000 C.3     1  UNL1       -0.0528
      6 C           6.3301    0.0600    0.0000 C.3     1  UNL1       -0.0496
      7 C           4.5981   -2.9400    0.0000 C.3     1  UNL1       -0.0491
      8 C           6.3301    1.0600    0.0000 C.3     1  UNL1       -0.0348
      9 C           3.7320   -3.4400    0.0000 C.3     1  UNL1       -0.0275
     10 C           6.3301    4.0600    0.0000 C.3     1  UNL1       -0.0496
     11 C           5.4641    4.5600    0.0000 C.3     1  UNL1       -0.0528
     12 C           6.3301    3.0600    0.0000 C.3     1  UNL1       -0.0348
     13 C           5.4641    5.5600    0.0000 C.3     1  UNL1       -0.0533
     14 C           7.1962    1.5600    0.0000 C.2     1  UNL1       -0.0879
     15 C           3.7320   -4.4400    0.0000 C.ar    1  UNL1       -0.0405
     16 C           7.1962    2.5600    0.0000 C.2     1  UNL1       -0.0879
     17 C           4.5981    6.0600    0.0000 C.3     1  UNL1       -0.0559
     18 C           2.8660   -4.9400    0.0000 C.ar    1  UNL1       -0.0168
     19 C           4.5981   -4.9400    0.0000 C.ar    1  UNL1       -0.0168
     20 C           4.5981    7.0600    0.0000 C.3     1  UNL1       -0.0653
     21 C           4.5981   -5.9400    0.0000 C.ar    1  UNL1        0.1206
     22 C           2.8660   -5.9400    0.0000 C.ar    1  UNL1        0.1206
     23 C           3.7320   -6.4400    0.0000 C.ar    1  UNL1        0.0213
     24 H           5.6762   -2.0226    0.0000 H       1  UNL1        0.0265
     25 H           6.0747   -1.3323    0.0000 H       1  UNL1        0.0265
     26 H           4.3860   -1.3574    0.0000 H       1  UNL1        0.0265
     27 H           3.9875   -2.0477    0.0000 H       1  UNL1        0.0265
     28 H           5.2520    0.1426    0.0000 H       1  UNL1        0.0265
     29 H           4.8535   -0.5477    0.0000 H       1  UNL1        0.0265
     30 H           6.5422   -0.5226    0.0000 H       1  UNL1        0.0268
     31 H           6.9407    0.1677    0.0000 H       1  UNL1        0.0268
     32 H           4.8101   -3.5226    0.0000 H       1  UNL1        0.0268
     33 H           5.2087   -2.8323    0.0000 H       1  UNL1        0.0268
     34 H           6.1181    1.6426    0.0000 H       1  UNL1        0.0307
     35 H           5.7196    0.9523    0.0000 H       1  UNL1        0.0307
     36 H           3.5200   -2.8574    0.0000 H       1  UNL1        0.0313
     37 H           3.1215   -3.5477    0.0000 H       1  UNL1        0.0313
     38 H           6.9407    3.9523    0.0000 H       1  UNL1        0.0268
     39 H           6.5422    4.6426    0.0000 H       1  UNL1        0.0268
     40 H           4.8535    4.6677    0.0000 H       1  UNL1        0.0265
     41 H           5.2520    3.9774    0.0000 H       1  UNL1        0.0265
     42 H           5.7196    3.1677    0.0000 H       1  UNL1        0.0307
     43 H           6.1181    2.4774    0.0000 H       1  UNL1        0.0307
     44 H           6.0747    5.4523    0.0000 H       1  UNL1        0.0265
     45 H           5.6762    6.1426    0.0000 H       1  UNL1        0.0265
     46 H           7.7331    1.2500    0.0000 H       1  UNL1        0.0569
     47 H           7.7331    2.8700    0.0000 H       1  UNL1        0.0569
     48 H           3.9875    6.1677    0.0000 H       1  UNL1        0.0263
     49 H           4.3860    5.4774    0.0000 H       1  UNL1        0.0263
     50 H           2.3291   -4.6300    0.0000 H       1  UNL1        0.0657
     51 H           5.1350   -4.6300    0.0000 H       1  UNL1        0.0657
     52 H           5.2181    7.0600    0.0000 H       1  UNL1        0.0230
     53 H           4.5981    7.6800    0.0000 H       1  UNL1        0.0230
     54 H           3.9781    7.0600    0.0000 H       1  UNL1        0.0230
     55 H           3.7320   -7.0600    0.0000 H       1  UNL1        0.0691
     56 H           5.4641   -7.0600    0.0000 H       1  UNL1        0.2921
     57 H           2.0000   -7.0600    0.0000 H       1  UNL1        0.2921
@<TRIPOS>BOND
     1     1    21    1
     2     1    56    1
     3     2    22    1
     4     2    57    1
     5     3     4    1
     6     3     5    1
     7     3    24    1
     8     3    25    1
     9     4     6    1
    10     4    28    1
    11     4    29    1
    12     5     7    1
    13     5    26    1
    14     5    27    1
    15     6     8    1
    16     6    30    1
    17     6    31    1
    18     7     9    1
    19     7    32    1
    20     7    33    1
    21     8    14    1
    22     8    34    1
    23     8    35    1
    24     9    15    1
    25     9    36    1
    26     9    37    1
    27    10    11    1
    28    10    12    1
    29    10    38    1
    30    10    39    1
    31    11    13    1
    32    11    40    1
    33    11    41    1
    34    12    16    1
    35    12    42    1
    36    12    43    1
    37    13    17    1
    38    13    44    1
    39    13    45    1
    40    14    16    2
    41    14    46    1
    42    15    18   ar
    43    15    19   ar
    44    16    47    1
    45    17    20    1
    46    17    48    1
    47    17    49    1
    48    18    22   ar
    49    18    50    1
    50    19    21   ar
    51    19    51    1
    52    20    52    1
    53    20    53    1
    54    20    54    1
    55    21    23   ar
    56    22    23   ar
    57    23    55    1
