@<TRIPOS>MOLECULE
IMPHY008481
 24 26 0 0 0
SMALL
GASTEIGER

@<TRIPOS>ATOM
      1 O           6.4783   -0.8047    0.0000 O.2     1  UNL1       -0.4465
      2 O           4.6660    2.0000    0.0000 O.2     1  UNL1       -0.2864
      3 N           4.6660   -1.0000    0.0000 N.ar    1  UNL1       -0.3138
      4 C           3.8000   -0.5000    0.0000 C.ar    1  UNL1        0.0553
      5 C           5.5321   -0.5000    0.0000 C.ar    1  UNL1        0.2119
      6 C           3.8000    0.5000    0.0000 C.ar    1  UNL1        0.0460
      7 C           5.5321    0.5000    0.0000 C.ar    1  UNL1        0.0853
      8 C           4.6660    1.0000    0.0000 C.ar    1  UNL1        0.2003
      9 C           2.9061   -1.0347    0.0000 C.ar    1  UNL1       -0.0374
     10 C           4.6660   -2.0000    0.0000 C.3     1  UNL1        0.0152
     11 C           6.4783    0.8047    0.0000 C.ar    1  UNL1       -0.0108
     12 C           2.9061    1.0347    0.0000 C.ar    1  UNL1       -0.0489
     13 C           7.0619    0.0000    0.0000 C.ar    1  UNL1        0.0951
     14 C           2.0000   -0.5208    0.0000 C.ar    1  UNL1       -0.0598
     15 C           2.0000    0.5208    0.0000 C.ar    1  UNL1       -0.0610
     16 H           2.9132   -1.6546    0.0000 H       1  UNL1        0.0638
     17 H           4.0460   -2.0000    0.0000 H       1  UNL1        0.0457
     18 H           4.6660   -2.6200    0.0000 H       1  UNL1        0.0457
     19 H           5.2860   -2.0000    0.0000 H       1  UNL1        0.0457
     20 H           6.6709    1.3940    0.0000 H       1  UNL1        0.0657
     21 H           2.9132    1.6546    0.0000 H       1  UNL1        0.0625
     22 H           7.6819    0.0000    0.0000 H       1  UNL1        0.1030
     23 H           1.4643   -0.8329    0.0000 H       1  UNL1        0.0618
     24 H           1.4643    0.8329    0.0000 H       1  UNL1        0.0618
@<TRIPOS>BOND
     1     1     5   ar
     2     1    13   ar
     3     2     8    2
     4     3     4   ar
     5     3     5   ar
     6     3    10    1
     7     4     6   ar
     8     4     9   ar
     9     5     7   ar
    10     6     8   ar
    11     6    12   ar
    12     7     8   ar
    13     7    11   ar
    14     9    14   ar
    15     9    16    1
    16    10    17    1
    17    10    18    1
    18    10    19    1
    19    11    13   ar
    20    11    20    1
    21    12    15   ar
    22    12    21    1
    23    13    22    1
    24    14    15   ar
    25    14    23    1
    26    15    24    1
