@<TRIPOS>MOLECULE
IMPHY007990
 37 39 0 0 0
SMALL
GASTEIGER

@<TRIPOS>ATOM
      1 O           4.3009    2.2247    0.0000 O.2     1  UNL1       -0.4594
      2 O           6.3981    1.3003    0.0000 O.2     1  UNL1       -0.2885
      3 C           3.8000   -0.1997    0.0000 C.3     1  UNL1       -0.0082
      4 C           2.9061   -0.7343    0.0000 C.3     1  UNL1       -0.0314
      5 C           3.8000    0.8003    0.0000 C.ar    1  UNL1        0.0078
      6 C           4.6660   -0.6997    0.0000 C.3     1  UNL1       -0.0361
      7 C           2.0000   -0.2205    0.0000 C.3     1  UNL1       -0.0453
      8 C           2.9176   -1.7342    0.0000 C.3     1  UNL1       -0.0433
      9 C           2.0000    0.8212    0.0000 C.3     1  UNL1       -0.0241
     10 C           5.5321   -0.1997    0.0000 C.3     1  UNL1        0.0230
     11 C           2.9061    1.3350    0.0000 C.ar    1  UNL1       -0.0055
     12 C           4.6660    1.3003    0.0000 C.ar    1  UNL1        0.1738
     13 C           5.5321    0.8003    0.0000 C.2     1  UNL1        0.2010
     14 C           2.0574   -2.2442    0.0000 C.3     1  UNL1       -0.0624
     15 C           3.7894   -2.2242    0.0000 C.3     1  UNL1       -0.0624
     16 C           3.3073    2.2442    0.0000 C.ar    1  UNL1        0.0961
     17 C           6.3981   -0.6997    0.0000 C.3     1  UNL1       -0.0552
     18 H           3.8066   -1.0496    0.0000 H       1  UNL1        0.0353
     19 H           2.3721   -1.0495    0.0000 H       1  UNL1        0.0309
     20 H           4.2675   -1.1746    0.0000 H       1  UNL1        0.0278
     21 H           5.0646   -1.1746    0.0000 H       1  UNL1        0.0278
     22 H           1.3891   -0.1144    0.0000 H       1  UNL1        0.0271
     23 H           1.7909   -0.8042    0.0000 H       1  UNL1        0.0271
     24 H           3.4510   -1.4181    0.0000 H       1  UNL1        0.0298
     25 H           1.7909    1.4048    0.0000 H       1  UNL1        0.0314
     26 H           1.3891    0.7151    0.0000 H       1  UNL1        0.0314
     27 H           5.5321   -0.8197    0.0000 H       1  UNL1        0.0379
     28 H           1.7413   -1.7109    0.0000 H       1  UNL1        0.0232
     29 H           1.5241   -2.5604    0.0000 H       1  UNL1        0.0232
     30 H           2.3736   -2.7776    0.0000 H       1  UNL1        0.0232
     31 H           3.4856   -2.7647    0.0000 H       1  UNL1        0.0232
     32 H           4.3299   -2.5280    0.0000 H       1  UNL1        0.0232
     33 H           4.0931   -1.6837    0.0000 H       1  UNL1        0.0232
     34 H           2.9739    2.7670    0.0000 H       1  UNL1        0.1032
     35 H           6.0881   -1.2366    0.0000 H       1  UNL1        0.0237
     36 H           6.9350   -1.0097    0.0000 H       1  UNL1        0.0237
     37 H           6.7081   -0.1627    0.0000 H       1  UNL1        0.0237
@<TRIPOS>BOND
     1     1    12   ar
     2     1    16   ar
     3     2    13    2
     4     3     4    1
     5     3     5    1
     6     3     6    1
     7     3    18    1
     8     4     7    1
     9     4     8    1
    10     4    19    1
    11     5    11   ar
    12     5    12   ar
    13     6    10    1
    14     6    20    1
    15     6    21    1
    16     7     9    1
    17     7    22    1
    18     7    23    1
    19     8    14    1
    20     8    15    1
    21     8    24    1
    22     9    11    1
    23     9    25    1
    24     9    26    1
    25    10    13    1
    26    10    17    1
    27    10    27    1
    28    11    16   ar
    29    12    13    1
    30    14    28    1
    31    14    29    1
    32    14    30    1
    33    15    31    1
    34    15    32    1
    35    15    33    1
    36    16    34    1
    37    17    35    1
    38    17    36    1
    39    17    37    1
