@<TRIPOS>MOLECULE
IMPHY003587
 167 166 0 0 0
SMALL
GASTEIGER

@<TRIPOS>ATOM
      1 O          16.7224    2.0600    0.0000 O.3     1  UNL1       -0.4544
      2 O          14.1244    1.5600    0.0000 O.3     1  UNL1       -0.4608
      3 O          14.9904    0.0600    0.0000 O.3     1  UNL1       -0.4608
      4 O          17.5885    0.5600    0.0000 O.2     1  UNL1       -0.2508
      5 O          13.2583    3.0600    0.0000 O.2     1  UNL1       -0.2509
      6 O          15.8564   -1.4400    0.0000 O.2     1  UNL1       -0.2509
      7 C          21.0526    1.5600    0.0000 C.3     1  UNL1       -0.0530
      8 C          21.9186    2.0600    0.0000 C.3     1  UNL1       -0.0528
      9 C          13.2583   -3.9400    0.0000 C.3     1  UNL1       -0.0530
     10 C           9.7942    2.0600    0.0000 C.3     1  UNL1       -0.0530
     11 C          20.1865    2.0600    0.0000 C.3     1  UNL1       -0.0526
     12 C           8.9282    1.5600    0.0000 C.3     1  UNL1       -0.0528
     13 C          12.3923   -4.4400    0.0000 C.3     1  UNL1       -0.0528
     14 C          26.2487    4.5600    0.0000 C.3     1  UNL1       -0.0528
     15 C          27.1147    5.0600    0.0000 C.3     1  UNL1       -0.0530
     16 C          22.7846    1.5600    0.0000 C.3     1  UNL1       -0.0496
     17 C           3.7320   -1.4400    0.0000 C.3     1  UNL1       -0.0530
     18 C           7.1962   -7.4400    0.0000 C.3     1  UNL1       -0.0530
     19 C           8.0622   -6.9400    0.0000 C.3     1  UNL1       -0.0528
     20 C           4.5981   -0.9400    0.0000 C.3     1  UNL1       -0.0528
     21 C          13.2583   -2.9400    0.0000 C.3     1  UNL1       -0.0526
     22 C          10.6603    1.5600    0.0000 C.3     1  UNL1       -0.0526
     23 C           8.0622    2.0600    0.0000 C.3     1  UNL1       -0.0496
     24 C          12.3923   -5.4400    0.0000 C.3     1  UNL1       -0.0496
     25 C          26.2487    3.5600    0.0000 C.3     1  UNL1       -0.0496
     26 C          27.1147    6.0600    0.0000 C.3     1  UNL1       -0.0531
     27 C           6.3301   -6.9400    0.0000 C.3     1  UNL1       -0.0531
     28 C           3.7320   -2.4400    0.0000 C.3     1  UNL1       -0.0531
     29 C           4.5981    0.0600    0.0000 C.3     1  UNL1       -0.0496
     30 C           8.9282   -7.4400    0.0000 C.3     1  UNL1       -0.0496
     31 C          19.3205    1.5600    0.0000 C.3     1  UNL1       -0.0430
     32 C          14.1244   -2.4400    0.0000 C.3     1  UNL1       -0.0430
     33 C          11.5263    2.0600    0.0000 C.3     1  UNL1       -0.0430
     34 C          23.6506    2.0600    0.0000 C.3     1  UNL1       -0.0348
     35 C           7.1962    1.5600    0.0000 C.3     1  UNL1       -0.0348
     36 C          11.5263   -5.9400    0.0000 C.3     1  UNL1       -0.0348
     37 C          25.3827    3.0600    0.0000 C.3     1  UNL1       -0.0348
     38 C          27.9808    6.5600    0.0000 C.3     1  UNL1       -0.0533
     39 C           2.8660   -2.9400    0.0000 C.3     1  UNL1       -0.0533
     40 C           5.4641   -7.4400    0.0000 C.3     1  UNL1       -0.0533
     41 C           9.7942   -6.9400    0.0000 C.3     1  UNL1       -0.0348
     42 C           5.4641    0.5600    0.0000 C.3     1  UNL1       -0.0348
     43 C          18.4545    2.0600    0.0000 C.3     1  UNL1        0.0450
     44 C          14.1244   -1.4400    0.0000 C.3     1  UNL1        0.0449
     45 C          12.3923    1.5600    0.0000 C.3     1  UNL1        0.0449
     46 C          24.5167    1.5600    0.0000 C.2     1  UNL1       -0.0879
     47 C          25.3827    2.0600    0.0000 C.2     1  UNL1       -0.0879
     48 C          27.9808    7.5600    0.0000 C.3     1  UNL1       -0.0559
     49 C           4.5981   -6.9400    0.0000 C.3     1  UNL1       -0.0559
     50 C           2.8660   -3.9400    0.0000 C.3     1  UNL1       -0.0559
     51 C          11.5263   -6.9400    0.0000 C.2     1  UNL1       -0.0879
     52 C           6.3301    2.0600    0.0000 C.2     1  UNL1       -0.0879
     53 C           5.4641    1.5600    0.0000 C.2     1  UNL1       -0.0879
     54 C          10.6603   -7.4400    0.0000 C.2     1  UNL1       -0.0879
     55 C          15.8564    1.5600    0.0000 C.3     1  UNL1        0.1706
     56 C          14.9904    2.0600    0.0000 C.3     1  UNL1        0.1325
     57 C          15.8564    0.5600    0.0000 C.3     1  UNL1        0.1325
     58 C          17.5885    1.5600    0.0000 C.2     1  UNL1        0.3075
     59 C          13.2583    2.0600    0.0000 C.2     1  UNL1        0.3072
     60 C          14.9904   -0.9400    0.0000 C.2     1  UNL1        0.3072
     61 C          28.8468    8.0600    0.0000 C.3     1  UNL1       -0.0653
     62 C           2.0000   -4.4400    0.0000 C.3     1  UNL1       -0.0653
     63 C           3.7320   -7.4400    0.0000 C.3     1  UNL1       -0.0653
     64 H          20.6540    1.0850    0.0000 H       1  UNL1        0.0265
     65 H          21.4511    1.0850    0.0000 H       1  UNL1        0.0265
     66 H          22.3171    2.5349    0.0000 H       1  UNL1        0.0265
     67 H          21.5201    2.5349    0.0000 H       1  UNL1        0.0265
     68 H          10.1928    2.5349    0.0000 H       1  UNL1        0.0265
     69 H          13.4704   -4.5226    0.0000 H       1  UNL1        0.0265
     70 H          13.8689   -3.8323    0.0000 H       1  UNL1        0.0265
     71 H           9.3957    2.5349    0.0000 H       1  UNL1        0.0265
     72 H          20.5851    2.5349    0.0000 H       1  UNL1        0.0265
     73 H          19.7880    2.5349    0.0000 H       1  UNL1        0.0265
     74 H          12.1803   -3.8574    0.0000 H       1  UNL1        0.0265
     75 H           8.5297    1.0850    0.0000 H       1  UNL1        0.0265
     76 H           9.3267    1.0850    0.0000 H       1  UNL1        0.0265
     77 H          11.7817   -4.5477    0.0000 H       1  UNL1        0.0265
     78 H          26.0367    5.1426    0.0000 H       1  UNL1        0.0265
     79 H          25.6381    4.4523    0.0000 H       1  UNL1        0.0265
     80 H          27.3268    4.4774    0.0000 H       1  UNL1        0.0265
     81 H          27.7253    5.1677    0.0000 H       1  UNL1        0.0265
     82 H          22.3861    1.0850    0.0000 H       1  UNL1        0.0268
     83 H          23.1831    1.0850    0.0000 H       1  UNL1        0.0268
     84 H           6.7976   -7.9150    0.0000 H       1  UNL1        0.0265
     85 H           7.5947   -7.9150    0.0000 H       1  UNL1        0.0265
     86 H           3.5200   -0.8574    0.0000 H       1  UNL1        0.0265
     87 H           3.1215   -1.5477    0.0000 H       1  UNL1        0.0265
     88 H           4.8101   -1.5226    0.0000 H       1  UNL1        0.0265
     89 H           5.2087   -0.8323    0.0000 H       1  UNL1        0.0265
     90 H           8.4607   -6.4650    0.0000 H       1  UNL1        0.0265
     91 H           7.6636   -6.4650    0.0000 H       1  UNL1        0.0265
     92 H          10.2617    1.0850    0.0000 H       1  UNL1        0.0265
     93 H          13.0463   -2.3574    0.0000 H       1  UNL1        0.0265
     94 H          12.6477   -3.0477    0.0000 H       1  UNL1        0.0265
     95 H          11.0588    1.0850    0.0000 H       1  UNL1        0.0265
     96 H           8.4607    2.5349    0.0000 H       1  UNL1        0.0268
     97 H           7.6636    2.5349    0.0000 H       1  UNL1        0.0268
     98 H          12.6044   -6.0226    0.0000 H       1  UNL1        0.0268
     99 H          13.0029   -5.3323    0.0000 H       1  UNL1        0.0268
    100 H          26.4608    2.9774    0.0000 H       1  UNL1        0.0268
    101 H          26.8593    3.6677    0.0000 H       1  UNL1        0.0268
    102 H          26.9027    6.6426    0.0000 H       1  UNL1        0.0265
    103 H          26.5042    5.9523    0.0000 H       1  UNL1        0.0265
    104 H           6.7287   -6.4650    0.0000 H       1  UNL1        0.0265
    105 H           5.9316   -6.4650    0.0000 H       1  UNL1        0.0265
    106 H           3.9441   -3.0226    0.0000 H       1  UNL1        0.0265
    107 H           4.3426   -2.3323    0.0000 H       1  UNL1        0.0265
    108 H           8.5297   -7.9150    0.0000 H       1  UNL1        0.0268
    109 H           9.3267   -7.9150    0.0000 H       1  UNL1        0.0268
    110 H           4.3860    0.6426    0.0000 H       1  UNL1        0.0268
    111 H           3.9875   -0.0477    0.0000 H       1  UNL1        0.0268
    112 H          18.9220    1.0850    0.0000 H       1  UNL1        0.0270
    113 H          19.7190    1.0850    0.0000 H       1  UNL1        0.0270
    114 H          14.3364   -3.0226    0.0000 H       1  UNL1        0.0270
    115 H          14.7349   -2.3323    0.0000 H       1  UNL1        0.0270
    116 H          11.9248    2.5349    0.0000 H       1  UNL1        0.0270
    117 H          11.1278    2.5349    0.0000 H       1  UNL1        0.0270
    118 H          24.0492    2.5349    0.0000 H       1  UNL1        0.0307
    119 H          23.2521    2.5349    0.0000 H       1  UNL1        0.0307
    120 H          11.3142   -5.3574    0.0000 H       1  UNL1        0.0307
    121 H          10.9157   -6.0477    0.0000 H       1  UNL1        0.0307
    122 H           6.7976    1.0850    0.0000 H       1  UNL1        0.0307
    123 H           7.5947    1.0850    0.0000 H       1  UNL1        0.0307
    124 H          25.1706    3.6426    0.0000 H       1  UNL1        0.0307
    125 H          24.7721    2.9523    0.0000 H       1  UNL1        0.0307
    126 H          28.1928    5.9774    0.0000 H       1  UNL1        0.0265
    127 H          28.5913    6.6677    0.0000 H       1  UNL1        0.0265
    128 H           2.6540   -2.3574    0.0000 H       1  UNL1        0.0265
    129 H           2.2554   -3.0477    0.0000 H       1  UNL1        0.0265
    130 H           5.0656   -7.9150    0.0000 H       1  UNL1        0.0265
    131 H           5.8626   -7.9150    0.0000 H       1  UNL1        0.0265
    132 H          10.1928   -6.4650    0.0000 H       1  UNL1        0.0307
    133 H           9.3957   -6.4650    0.0000 H       1  UNL1        0.0307
    134 H           5.6762   -0.0226    0.0000 H       1  UNL1        0.0307
    135 H           6.0747    0.6677    0.0000 H       1  UNL1        0.0307
    136 H          18.8530    2.5349    0.0000 H       1  UNL1        0.0377
    137 H          18.0560    2.5349    0.0000 H       1  UNL1        0.0377
    138 H          11.9938    1.0850    0.0000 H       1  UNL1        0.0377
    139 H          12.7908    1.0850    0.0000 H       1  UNL1        0.0377
    140 H          13.9123   -0.8574    0.0000 H       1  UNL1        0.0377
    141 H          13.5138   -1.5477    0.0000 H       1  UNL1        0.0377
    142 H          24.5167    0.9400    0.0000 H       1  UNL1        0.0569
    143 H          25.9196    1.7500    0.0000 H       1  UNL1        0.0569
    144 H          27.7687    8.1426    0.0000 H       1  UNL1        0.0263
    145 H          27.3702    7.4523    0.0000 H       1  UNL1        0.0263
    146 H           4.9966   -6.4650    0.0000 H       1  UNL1        0.0263
    147 H           3.0781   -4.5226    0.0000 H       1  UNL1        0.0263
    148 H           3.4766   -3.8323    0.0000 H       1  UNL1        0.0263
    149 H           4.1996   -6.4650    0.0000 H       1  UNL1        0.0263
    150 H          12.0632   -7.2500    0.0000 H       1  UNL1        0.0569
    151 H           6.3301    2.6800    0.0000 H       1  UNL1        0.0569
    152 H          10.6603   -8.0600    0.0000 H       1  UNL1        0.0569
    153 H           4.9272    1.8700    0.0000 H       1  UNL1        0.0569
    154 H          16.3933    1.2500    0.0000 H       1  UNL1        0.0803
    155 H          16.0685   -0.0226    0.0000 H       1  UNL1        0.0736
    156 H          16.4670    0.6677    0.0000 H       1  UNL1        0.0736
    157 H          15.3889    2.5349    0.0000 H       1  UNL1        0.0736
    158 H          14.5919    2.5349    0.0000 H       1  UNL1        0.0736
    159 H          29.1568    7.5231    0.0000 H       1  UNL1        0.0230
    160 H          29.3837    8.3700    0.0000 H       1  UNL1        0.0230
    161 H          28.5368    8.5969    0.0000 H       1  UNL1        0.0230
    162 H           3.4220   -6.9031    0.0000 H       1  UNL1        0.0230
    163 H           3.1951   -7.7500    0.0000 H       1  UNL1        0.0230
    164 H           4.0420   -7.9769    0.0000 H       1  UNL1        0.0230
    165 H           1.6900   -3.9031    0.0000 H       1  UNL1        0.0230
    166 H           1.4631   -4.7500    0.0000 H       1  UNL1        0.0230
    167 H           2.3100   -4.9769    0.0000 H       1  UNL1        0.0230
@<TRIPOS>BOND
     1     1    55    1
     2     1    58    1
     3     2    56    1
     4     2    59    1
     5     3    57    1
     6     3    60    1
     7     4    58    2
     8     5    59    2
     9     6    60    2
    10     7     8    1
    11     7    11    1
    12     7    64    1
    13     7    65    1
    14     8    16    1
    15     8    66    1
    16     8    67    1
    17     9    13    1
    18     9    21    1
    19     9    69    1
    20     9    70    1
    21    10    12    1
    22    10    22    1
    23    10    68    1
    24    10    71    1
    25    11    31    1
    26    11    72    1
    27    11    73    1
    28    12    23    1
    29    12    75    1
    30    12    76    1
    31    13    24    1
    32    13    74    1
    33    13    77    1
    34    14    15    1
    35    14    25    1
    36    14    78    1
    37    14    79    1
    38    15    26    1
    39    15    80    1
    40    15    81    1
    41    16    34    1
    42    16    82    1
    43    16    83    1
    44    17    20    1
    45    17    28    1
    46    17    86    1
    47    17    87    1
    48    18    19    1
    49    18    27    1
    50    18    84    1
    51    18    85    1
    52    19    30    1
    53    19    90    1
    54    19    91    1
    55    20    29    1
    56    20    88    1
    57    20    89    1
    58    21    32    1
    59    21    93    1
    60    21    94    1
    61    22    33    1
    62    22    92    1
    63    22    95    1
    64    23    35    1
    65    23    96    1
    66    23    97    1
    67    24    36    1
    68    24    98    1
    69    24    99    1
    70    25    37    1
    71    25   100    1
    72    25   101    1
    73    26    38    1
    74    26   102    1
    75    26   103    1
    76    27    40    1
    77    27   104    1
    78    27   105    1
    79    28    39    1
    80    28   106    1
    81    28   107    1
    82    29    42    1
    83    29   110    1
    84    29   111    1
    85    30    41    1
    86    30   108    1
    87    30   109    1
    88    31    43    1
    89    31   112    1
    90    31   113    1
    91    32    44    1
    92    32   114    1
    93    32   115    1
    94    33    45    1
    95    33   116    1
    96    33   117    1
    97    34    46    1
    98    34   118    1
    99    34   119    1
   100    35    52    1
   101    35   122    1
   102    35   123    1
   103    36    51    1
   104    36   120    1
   105    36   121    1
   106    37    47    1
   107    37   124    1
   108    37   125    1
   109    38    48    1
   110    38   126    1
   111    38   127    1
   112    39    50    1
   113    39   128    1
   114    39   129    1
   115    40    49    1
   116    40   130    1
   117    40   131    1
   118    41    54    1
   119    41   132    1
   120    41   133    1
   121    42    53    1
   122    42   134    1
   123    42   135    1
   124    43    58    1
   125    43   136    1
   126    43   137    1
   127    44    60    1
   128    44   140    1
   129    44   141    1
   130    45    59    1
   131    45   138    1
   132    45   139    1
   133    46    47    2
   134    46   142    1
   135    47   143    1
   136    48    61    1
   137    48   144    1
   138    48   145    1
   139    49    63    1
   140    49   146    1
   141    49   149    1
   142    50    62    1
   143    50   147    1
   144    50   148    1
   145    51    54    2
   146    51   150    1
   147    52    53    2
   148    52   151    1
   149    53   153    1
   150    54   152    1
   151    55    56    1
   152    55    57    1
   153    55   154    1
   154    56   157    1
   155    56   158    1
   156    57   155    1
   157    57   156    1
   158    61   159    1
   159    61   160    1
   160    61   161    1
   161    62   165    1
   162    62   166    1
   163    62   167    1
   164    63   162    1
   165    63   163    1
   166    63   164    1
