@<TRIPOS>MOLECULE
IMPHY002059
 68 70 0 0 0
SMALL
GASTEIGER

@<TRIPOS>ATOM
      1 NA          6.6123    0.0000    0.0000 Na      1  UNL1        0.0000
      2 O           6.0319    7.5168    0.0000 O.3     2  UNL2        0.0000
      3 O           2.7950    6.7605    0.0000 O.3     2  UNL2        0.0000
      4 O           7.0465    8.1463    0.0000 O.2     2  UNL2        0.0000
      5 O           8.8722    7.3297    0.0000 O.3     2  UNL2        0.0000
      6 O           0.0000    3.2082    0.0000 O.2     2  UNL2        0.0000
      7 O           9.8879    5.9267    0.0000 O.2     2  UNL2        0.0000
      8 O          13.2308    7.2775    0.0000 O.3     2  UNL2        0.0000
      9 O          12.2151    8.6805    0.0000 O.2     2  UNL2        0.0000
     10 C           5.3931    6.2605    0.0000 C.3     2  UNL2        0.0000
     11 C           5.3931    5.2605    0.0000 C.3     2  UNL2        0.0000
     12 C           4.5271    4.7605    0.0000 C.3     2  UNL2        0.0000
     13 C           3.6610    5.2605    0.0000 C.3     2  UNL2        0.0000
     14 C           6.3393    6.5652    0.0000 C.3     2  UNL2        0.0000
     15 C           4.5271    6.7605    0.0000 C.3     2  UNL2        0.0000
     16 C           2.7510    4.7536    0.0000 C.3     2  UNL2        0.0000
     17 C           3.6610    6.2605    0.0000 C.3     2  UNL2        0.0000
     18 C           6.3393    4.9558    0.0000 C.3     2  UNL2        0.0000
     19 C           6.9229    5.7605    0.0000 C.3     2  UNL2        0.0000
     20 C           4.5431    3.7190    0.0000 C.3     2  UNL2        0.0000
     21 C           5.3931    7.2605    0.0000 C.3     2  UNL2        0.0000
     22 C           2.7430    3.7120    0.0000 C.2     2  UNL2        0.0000
     23 C           3.6451    3.1912    0.0000 C.3     2  UNL2        0.0000
     24 C           1.8242    5.3177    0.0000 C.3     2  UNL2        0.0000
     25 C           2.7587    5.7536    0.0000 C.3     2  UNL2        0.0000
     26 C           7.1493    7.1516    0.0000 C.2     2  UNL2        0.0000
     27 C           0.8763    4.7898    0.0000 C.3     2  UNL2        0.0000
     28 C           1.8076    3.1623    0.0000 C.2     2  UNL2        0.0000
     29 C           0.8679    3.7048    0.0000 C.2     2  UNL2        0.0000
     30 C           8.0622    6.7433    0.0000 C.3     2  UNL2        0.0000
     31 C           9.7850    6.9214    0.0000 C.2     2  UNL2        0.0000
     32 C          10.5951    7.5077    0.0000 C.3     2  UNL2        0.0000
     33 C          11.5079    7.0994    0.0000 C.3     2  UNL2        0.0000
     34 C          12.3180    7.6858    0.0000 C.2     2  UNL2        0.0000
     35 H           5.4830    4.4153    0.0000 H       2  UNL2        0.0000
     36 H           5.2664    4.3412    0.0000 H       2  UNL2        0.0000
     37 H           4.3972    5.6855    0.0000 H       2  UNL2        0.0000
     38 H           4.9256    7.2354    0.0000 H       2  UNL2        0.0000
     39 H           4.1285    7.2354    0.0000 H       2  UNL2        0.0000
     40 H           3.1241    5.9505    0.0000 H       2  UNL2        0.0000
     41 H           6.0883    4.3888    0.0000 H       2  UNL2        0.0000
     42 H           6.8767    4.6465    0.0000 H       2  UNL2        0.0000
     43 H           7.3838    5.3458    0.0000 H       2  UNL2        0.0000
     44 H           7.3838    6.1752    0.0000 H       2  UNL2        0.0000
     45 H           4.7612    3.1386    0.0000 H       2  UNL2        0.0000
     46 H           5.1523    3.8345    0.0000 H       2  UNL2        0.0000
     47 H           6.0131    7.2605    0.0000 H       2  UNL2        0.0000
     48 H           5.3931    7.8805    0.0000 H       2  UNL2        0.0000
     49 H           4.7731    7.2605    0.0000 H       2  UNL2        0.0000
     50 H           3.2478    2.7153    0.0000 H       2  UNL2        0.0000
     51 H           4.0460    2.7183    0.0000 H       2  UNL2        0.0000
     52 H           2.2324    5.7844    0.0000 H       2  UNL2        0.0000
     53 H           1.4343    5.7998    0.0000 H       2  UNL2        0.0000
     54 H           3.3787    5.7488    0.0000 H       2  UNL2        0.0000
     55 H           2.7635    6.3736    0.0000 H       2  UNL2        0.0000
     56 H           2.1388    5.7584    0.0000 H       2  UNL2        0.0000
     57 H           6.4476    7.9768    0.0000 H       2  UNL2        0.0000
     58 H           0.6718    5.3751    0.0000 H       2  UNL2        0.0000
     59 H           0.2647    4.6884    0.0000 H       2  UNL2        0.0000
     60 H           2.7950    7.3805    0.0000 H       2  UNL2        0.0000
     61 H           1.8100    2.5423    0.0000 H       2  UNL2        0.0000
     62 H           7.7146    6.2299    0.0000 H       2  UNL2        0.0000
     63 H           8.5074    6.3118    0.0000 H       2  UNL2        0.0000
     64 H          10.9427    8.0211    0.0000 H       2  UNL2        0.0000
     65 H          10.1498    7.9392    0.0000 H       2  UNL2        0.0000
     66 H          11.1603    6.5860    0.0000 H       2  UNL2        0.0000
     67 H          11.9532    6.6680    0.0000 H       2  UNL2        0.0000
     68 H          13.7330    7.6410    0.0000 H       2  UNL2        0.0000
@<TRIPOS>BOND
     1    14     2    1
     2     2    57    1
     3    17     3    1
     4     3    60    1
     5     4    26    2
     6     5    30    1
     7     5    31    1
     8     6    29    2
     9     7    31    2
    10     8    34    1
    11     8    68    1
    12     9    34    2
    13    10    11    1
    14    10    14    1
    15    10    15    1
    16    10    21    1
    17    11    12    1
    18    11    18    1
    19    11    35    1
    20    12    13    1
    21    12    20    1
    22    12    36    1
    23    13    16    1
    24    13    17    1
    25    13    37    1
    26    14    19    1
    27    14    26    1
    28    15    17    1
    29    15    38    1
    30    15    39    1
    31    16    22    1
    32    16    24    1
    33    16    25    1
    34    17    40    1
    35    18    19    1
    36    18    41    1
    37    18    42    1
    38    19    43    1
    39    19    44    1
    40    20    23    1
    41    20    45    1
    42    20    46    1
    43    21    47    1
    44    21    48    1
    45    21    49    1
    46    22    23    1
    47    22    28    2
    48    23    50    1
    49    23    51    1
    50    24    27    1
    51    24    52    1
    52    24    53    1
    53    25    54    1
    54    25    55    1
    55    25    56    1
    56    26    30    1
    57    27    29    1
    58    27    58    1
    59    27    59    1
    60    28    29    1
    61    28    61    1
    62    30    62    1
    63    30    63    1
    64    31    32    1
    65    32    33    1
    66    32    64    1
    67    32    65    1
    68    33    34    1
    69    33    66    1
    70    33    67    1
