@<TRIPOS>MOLECULE
IMPHY004577
 41 45 0 0 0
SMALL
GASTEIGER

@<TRIPOS>ATOM
      1 O           5.6252    3.9122    0.0000 O.3     1  UNL1       -0.4858
      2 O           5.3782    0.2174    0.0000 O.2     1  UNL1       -0.4535
      3 O           2.6853   -1.2266    0.0000 O.2     1  UNL1       -0.4214
      4 O           2.0000    0.4055    0.0000 O.2     1  UNL1       -0.2444
      5 O           4.1834   -4.5497    0.0000 O.3     1  UNL1       -0.5066
      6 C           6.7102    3.9122    0.0000 C.3     1  UNL1        0.1054
      7 C           7.2455    2.9684    0.0000 C.3     1  UNL1       -0.0092
      8 C           6.6886    2.0373    0.0000 C.3     1  UNL1       -0.0171
      9 C           5.6038    2.0624    0.0000 C.ar    1  UNL1        0.0372
     10 C           5.0900    2.9684    0.0000 C.ar    1  UNL1        0.1280
     11 C           5.0692    1.1684    0.0000 C.ar    1  UNL1        0.1431
     12 C           7.5782    4.4089    0.0000 C.3     1  UNL1       -0.0252
     13 C           6.7141    4.9122    0.0000 C.3     1  UNL1       -0.0252
     14 C           4.0692    1.1684    0.0000 C.ar    1  UNL1        0.0353
     15 C           3.7602    0.2174    0.0000 C.ar    1  UNL1        0.1128
     16 C           4.0484    2.9684    0.0000 C.ar    1  UNL1       -0.0188
     17 C           4.5692   -0.3704    0.0000 C.ar    1  UNL1        0.1538
     18 C           3.5345    2.0624    0.0000 C.ar    1  UNL1       -0.0467
     19 C           4.4763   -1.4079    0.0000 C.ar    1  UNL1        0.0607
     20 C           2.8022   -0.1916    0.0000 C.ar    1  UNL1        0.3488
     21 C           3.5280   -1.8389    0.0000 C.ar    1  UNL1        0.1461
     22 C           5.3686   -2.0252    0.0000 C.ar    1  UNL1       -0.0441
     23 C           3.4063   -2.9170    0.0000 C.ar    1  UNL1        0.0230
     24 C           5.2718   -3.1059    0.0000 C.ar    1  UNL1       -0.0193
     25 C           4.2840   -3.5548    0.0000 C.ar    1  UNL1        0.1204
     26 H           7.7152    2.5638    0.0000 H       1  UNL1        0.0307
     27 H           7.7245    3.3620    0.0000 H       1  UNL1        0.0307
     28 H           6.5684    1.4290    0.0000 H       1  UNL1        0.0317
     29 H           7.2672    1.8148    0.0000 H       1  UNL1        0.0317
     30 H           7.8861    3.8707    0.0000 H       1  UNL1        0.0268
     31 H           8.1163    4.7168    0.0000 H       1  UNL1        0.0268
     32 H           7.3341    4.9098    0.0000 H       1  UNL1        0.0268
     33 H           6.7165    5.5322    0.0000 H       1  UNL1        0.0268
     34 H           6.0941    4.9146    0.0000 H       1  UNL1        0.0268
     35 H           7.2702    4.9470    0.0000 H       1  UNL1        0.0268
     36 H           3.7363    3.5042    0.0000 H       1  UNL1        0.0654
     37 H           2.9146    2.0552    0.0000 H       1  UNL1        0.0626
     38 H           5.9300   -1.7621    0.0000 H       1  UNL1        0.0627
     39 H           2.8389   -3.1670    0.0000 H       1  UNL1        0.0691
     40 H           5.7776   -3.4645    0.0000 H       1  UNL1        0.0654
     41 H           4.6864   -4.9122    0.0000 H       1  UNL1        0.2921
@<TRIPOS>BOND
     1     1     6    1
     2     1    10    1
     3     2    11   ar
     4     2    17   ar
     5     3    20   ar
     6     3    21   ar
     7     4    20    2
     8     5    25    1
     9     5    41    1
    10     6     7    1
    11     6    12    1
    12     6    13    1
    13     7     8    1
    14     7    26    1
    15     7    27    1
    16     8     9    1
    17     8    28    1
    18     8    29    1
    19     9    10   ar
    20     9    11   ar
    21    10    16   ar
    22    11    14   ar
    23    12    30    1
    24    12    31    1
    25    12    35    1
    26    13    32    1
    27    13    33    1
    28    13    34    1
    29    14    15   ar
    30    14    18   ar
    31    15    17   ar
    32    15    20   ar
    33    16    18   ar
    34    16    36    1
    35    17    19   ar
    36    18    37    1
    37    19    21   ar
    38    19    22   ar
    39    21    23   ar
    40    22    24   ar
    41    22    38    1
    42    23    25   ar
    43    23    39    1
    44    24    25   ar
    45    24    40    1
