@<TRIPOS>MOLECULE
IMPHY008263
 81 83 0 0 0
SMALL
GASTEIGER

@<TRIPOS>ATOM
      1 O           2.8660    0.8100    0.0000 O.3     1  UNL1       -0.4819
      2 O           6.9641    0.4440    0.0000 O.2     1  UNL1       -0.2741
      3 O           3.7226    0.2933    0.0000 O.2     1  UNL1       -0.2736
      4 O           3.7118   -2.6532    0.0000 O.2     1  UNL1       -0.2734
      5 N           6.4641    3.0420    0.0000 N.3     1  UNL1       -0.2974
      6 N           5.4641    1.3100    0.0000 N.am    1  UNL1       -0.2994
      7 N           5.4641   -0.6900    0.0000 N.am    1  UNL1       -0.3023
      8 N           4.5981   -3.1900    0.0000 N.am    1  UNL1       -0.2904
      9 C           6.9641    2.1760    0.0000 C.3     1  UNL1        0.0893
     10 C           7.9641    2.1760    0.0000 C.3     1  UNL1       -0.0200
     11 C           4.5981    0.8100    0.0000 C.3     1  UNL1        0.1408
     12 C           8.4641    3.0421    0.0000 C.3     1  UNL1       -0.0514
     13 C           6.4641    1.3100    0.0000 C.2     1  UNL1        0.2312
     14 C           3.7320    1.3100    0.0000 C.3     1  UNL1        0.1518
     15 C           8.4641    1.3100    0.0000 C.3     1  UNL1       -0.0605
     16 C           5.4641   -1.6900    0.0000 C.3     1  UNL1        0.0999
     17 C           6.3301   -2.1900    0.0000 C.3     1  UNL1       -0.0236
     18 C           4.5981   -0.1900    0.0000 C.2     1  UNL1        0.2380
     19 C           7.1962   -1.6900    0.0000 C.3     1  UNL1       -0.0446
     20 C           9.4641    3.0421    0.0000 C.3     1  UNL1       -0.0650
     21 C           3.7320    2.3100    0.0000 C.ar    1  UNL1       -0.0051
     22 C           6.9641    3.9081    0.0000 C.3     1  UNL1       -0.0123
     23 C           5.4641    3.0420    0.0000 C.3     1  UNL1       -0.0123
     24 C           4.5981   -2.1900    0.0000 C.2     1  UNL1        0.2371
     25 C           8.0622   -2.1900    0.0000 C.3     1  UNL1       -0.0626
     26 C           7.1962   -0.6900    0.0000 C.3     1  UNL1       -0.0626
     27 C           4.5981    2.8100    0.0000 C.ar    1  UNL1       -0.0550
     28 C           2.8660    2.8100    0.0000 C.ar    1  UNL1       -0.0550
     29 C           2.8660   -0.1900    0.0000 C.ar    1  UNL1        0.1215
     30 C           4.5981    3.8100    0.0000 C.ar    1  UNL1       -0.0614
     31 C           2.8660    3.8100    0.0000 C.ar    1  UNL1       -0.0614
     32 C           3.7320   -0.6900    0.0000 C.ar    1  UNL1       -0.0194
     33 C           2.0000   -0.6900    0.0000 C.ar    1  UNL1       -0.0194
     34 C           3.7320    4.3100    0.0000 C.ar    1  UNL1       -0.0617
     35 C           3.7320   -3.6900    0.0000 C.2     1  UNL1       -0.0031
     36 C           2.8660   -2.1900    0.0000 C.ar    1  UNL1       -0.0236
     37 C           3.7320   -1.6900    0.0000 C.ar    1  UNL1       -0.0511
     38 C           2.0000   -1.6900    0.0000 C.ar    1  UNL1       -0.0511
     39 C           2.8660   -3.1900    0.0000 C.2     1  UNL1       -0.0407
     40 H           7.2741    2.7130    0.0000 H       1  UNL1        0.0561
     41 H           8.5841    2.1760    0.0000 H       1  UNL1        0.0318
     42 H           5.1350    0.5000    0.0000 H       1  UNL1        0.0636
     43 H           8.5718    3.6526    0.0000 H       1  UNL1        0.0266
     44 H           7.8815    3.2541    0.0000 H       1  UNL1        0.0266
     45 H           4.2690    1.6200    0.0000 H       1  UNL1        0.0808
     46 H           5.4641    1.9300    0.0000 H       1  UNL1        0.1496
     47 H           7.9272    1.0000    0.0000 H       1  UNL1        0.0233
     48 H           8.7741    0.7731    0.0000 H       1  UNL1        0.0233
     49 H           9.0010    1.6200    0.0000 H       1  UNL1        0.0233
     50 H           6.0010   -1.3800    0.0000 H       1  UNL1        0.0595
     51 H           5.9316   -2.6650    0.0000 H       1  UNL1        0.0290
     52 H           6.7287   -2.6649    0.0000 H       1  UNL1        0.0290
     53 H           6.6592   -1.3800    0.0000 H       1  UNL1        0.0296
     54 H           6.0010   -0.3800    0.0000 H       1  UNL1        0.1495
     55 H           9.4641    2.4221    0.0000 H       1  UNL1        0.0230
     56 H          10.0841    3.0421    0.0000 H       1  UNL1        0.0230
     57 H           9.4641    3.6621    0.0000 H       1  UNL1        0.0230
     58 H           5.4641    3.6620    0.0000 H       1  UNL1        0.0391
     59 H           4.8441    3.0420    0.0000 H       1  UNL1        0.0391
     60 H           5.4641    2.4220    0.0000 H       1  UNL1        0.0391
     61 H           7.5010    3.5981    0.0000 H       1  UNL1        0.0391
     62 H           7.2741    4.4450    0.0000 H       1  UNL1        0.0391
     63 H           6.4272    4.2181    0.0000 H       1  UNL1        0.0391
     64 H           7.8162   -0.6900    0.0000 H       1  UNL1        0.0232
     65 H           7.1962   -0.0700    0.0000 H       1  UNL1        0.0232
     66 H           6.5762   -0.6900    0.0000 H       1  UNL1        0.0232
     67 H           7.7522   -2.7269    0.0000 H       1  UNL1        0.0232
     68 H           8.5991   -2.5000    0.0000 H       1  UNL1        0.0232
     69 H           8.3722   -1.6530    0.0000 H       1  UNL1        0.0232
     70 H           5.1350    2.5000    0.0000 H       1  UNL1        0.0621
     71 H           2.3291    2.5000    0.0000 H       1  UNL1        0.0621
     72 H           5.1350   -3.5000    0.0000 H       1  UNL1        0.1543
     73 H           5.1350    4.1200    0.0000 H       1  UNL1        0.0618
     74 H           2.3291    4.1200    0.0000 H       1  UNL1        0.0618
     75 H           4.2690   -0.3800    0.0000 H       1  UNL1        0.0654
     76 H           1.4631   -0.3800    0.0000 H       1  UNL1        0.0654
     77 H           3.7320    4.9300    0.0000 H       1  UNL1        0.0618
     78 H           3.7320   -4.3100    0.0000 H       1  UNL1        0.0782
     79 H           4.2690   -2.0000    0.0000 H       1  UNL1        0.0625
     80 H           1.4631   -2.0000    0.0000 H       1  UNL1        0.0625
     81 H           2.3291   -3.5000    0.0000 H       1  UNL1        0.0636
@<TRIPOS>BOND
     1     1    14    1
     2     1    29    1
     3     2    13    2
     4     3    18    2
     5     4    24    2
     6     9     5    1
     7     5    22    1
     8     5    23    1
     9    11     6    1
    10     6    13   am
    11     6    46    1
    12     7    16    1
    13     7    18   am
    14     7    54    1
    15     8    24   am
    16     8    35    1
    17     8    72    1
    18     9    10    1
    19     9    13    1
    20     9    40    1
    21    10    12    1
    22    10    15    1
    23    10    41    1
    24    11    14    1
    25    11    18    1
    26    11    42    1
    27    12    20    1
    28    12    43    1
    29    12    44    1
    30    14    21    1
    31    14    45    1
    32    15    47    1
    33    15    48    1
    34    15    49    1
    35    16    17    1
    36    16    24    1
    37    16    50    1
    38    17    19    1
    39    17    51    1
    40    17    52    1
    41    19    25    1
    42    19    26    1
    43    19    53    1
    44    20    55    1
    45    20    56    1
    46    20    57    1
    47    21    27   ar
    48    21    28   ar
    49    22    61    1
    50    22    62    1
    51    22    63    1
    52    23    58    1
    53    23    59    1
    54    23    60    1
    55    25    67    1
    56    25    68    1
    57    25    69    1
    58    26    64    1
    59    26    65    1
    60    26    66    1
    61    27    30   ar
    62    27    70    1
    63    28    31   ar
    64    28    71    1
    65    29    32   ar
    66    29    33   ar
    67    30    34   ar
    68    30    73    1
    69    31    34   ar
    70    31    74    1
    71    32    37   ar
    72    32    75    1
    73    33    38   ar
    74    33    76    1
    75    34    77    1
    76    35    39    2
    77    35    78    1
    78    36    37   ar
    79    36    38   ar
    80    36    39    1
    81    37    79    1
    82    38    80    1
    83    39    81    1
