@<TRIPOS>MOLECULE
IMPHY008863
 36 36 0 0 0
SMALL
GASTEIGER

@<TRIPOS>ATOM
      1 O           2.3100   -0.5950    0.0000 O.3     1  UNL1       -0.3838
      2 O           4.1760   -3.0950    0.0000 O.3     1  UNL1       -0.3917
      3 O           5.9081    1.9050    0.0000 O.2     1  UNL1       -0.2923
      4 C           5.0420   -0.5950    0.0000 C.3     1  UNL1       -0.0014
      5 C           3.3100   -0.5950    0.0000 C.3     1  UNL1        0.0943
      6 C           5.0420   -1.5950    0.0000 C.3     1  UNL1       -0.0172
      7 C           4.1760   -2.0950    0.0000 C.3     1  UNL1        0.0590
      8 C           3.3100   -1.5950    0.0000 C.3     1  UNL1        0.0063
      9 C           4.1760   -0.0950    0.0000 C.2     1  UNL1        0.0092
     10 C           6.0420   -0.5950    0.0000 C.3     1  UNL1       -0.0553
     11 C           5.5420    0.2710    0.0000 C.3     1  UNL1       -0.0553
     12 C           2.8100    0.2710    0.0000 C.3     1  UNL1       -0.0315
     13 C           4.1760    0.9050    0.0000 C.1     1  UNL1       -0.1139
     14 C           4.1760    1.9050    0.0000 C.2     1  UNL1        0.0227
     15 C           5.0420    2.4050    0.0000 C.2     1  UNL1        0.1605
     16 C           5.0420    3.4050    0.0000 C.3     1  UNL1       -0.0014
     17 H           5.2541   -2.1776    0.0000 H       1  UNL1        0.0299
     18 H           5.6526   -1.4873    0.0000 H       1  UNL1        0.0299
     19 H           4.7130   -2.4050    0.0000 H       1  UNL1        0.0594
     20 H           2.6994   -1.4873    0.0000 H       1  UNL1        0.0321
     21 H           3.0980   -2.1776    0.0000 H       1  UNL1        0.0321
     22 H           6.0420   -1.2150    0.0000 H       1  UNL1        0.0238
     23 H           6.6620   -0.5950    0.0000 H       1  UNL1        0.0238
     24 H           6.0420    0.0250    0.0000 H       1  UNL1        0.0238
     25 H           6.0790   -0.0390    0.0000 H       1  UNL1        0.0238
     26 H           5.8520    0.8080    0.0000 H       1  UNL1        0.0238
     27 H           5.0051    0.5810    0.0000 H       1  UNL1        0.0238
     28 H           3.3469    0.5810    0.0000 H       1  UNL1        0.0261
     29 H           2.5000    0.8080    0.0000 H       1  UNL1        0.0261
     30 H           2.2731   -0.0390    0.0000 H       1  UNL1        0.0261
     31 H           2.0000   -1.1319    0.0000 H       1  UNL1        0.2106
     32 H           4.7130   -3.4050    0.0000 H       1  UNL1        0.2098
     33 H           3.6391    2.2150    0.0000 H       1  UNL1        0.0741
     34 H           5.6620    3.4050    0.0000 H       1  UNL1        0.0309
     35 H           5.0420    4.0250    0.0000 H       1  UNL1        0.0309
     36 H           4.4220    3.4050    0.0000 H       1  UNL1        0.0309
@<TRIPOS>BOND
     1     5     1    1
     2     1    31    1
     3     7     2    1
     4     2    32    1
     5     3    15    2
     6     4     6    1
     7     4     9    1
     8     4    10    1
     9     4    11    1
    10     5     8    1
    11     5     9    1
    12     5    12    1
    13     6     7    1
    14     6    17    1
    15     6    18    1
    16     7     8    1
    17     7    19    1
    18     8    20    1
    19     8    21    1
    20     9    13    2
    21    10    22    1
    22    10    23    1
    23    10    24    1
    24    11    25    1
    25    11    26    1
    26    11    27    1
    27    12    28    1
    28    12    29    1
    29    12    30    1
    30    13    14    2
    31    14    15    1
    32    14    33    1
    33    15    16    1
    34    16    34    1
    35    16    35    1
    36    16    36    1
