@<TRIPOS>MOLECULE
IMPHY011639
 38 39 0 0 0
SMALL
GASTEIGER

@<TRIPOS>ATOM
      1 O           8.1282    0.7569    0.0000 O.2     1  UNL1       -0.2924
      2 C           5.4641   -0.7673    0.0000 C.3     1  UNL1       -0.0100
      3 C           4.5981   -1.2673    0.0000 C.3     1  UNL1       -0.0433
      4 C           5.4641    0.2327    0.0000 C.2     1  UNL1       -0.0569
      5 C           3.7320    0.2327    0.0000 C.3     1  UNL1       -0.0167
      6 C           6.3580   -1.3020    0.0000 C.3     1  UNL1       -0.0369
      7 C           3.7320   -0.7673    0.0000 C.3     1  UNL1       -0.0455
      8 C           4.5981    0.7327    0.0000 C.3     1  UNL1       -0.0241
      9 C           5.4641   -1.7673    0.0000 C.3     1  UNL1       -0.0558
     10 C           7.2641   -0.7881    0.0000 C.3     1  UNL1        0.0109
     11 C           6.3580    0.7674    0.0000 C.2     1  UNL1       -0.0083
     12 C           7.2641    0.2535    0.0000 C.2     1  UNL1        0.1590
     13 C           2.8660    0.7327    0.0000 C.2     1  UNL1       -0.0763
     14 C           6.3465    1.7673    0.0000 C.3     1  UNL1       -0.0364
     15 C           2.0000    0.2327    0.0000 C.3     1  UNL1       -0.0438
     16 C           2.8660    1.7327    0.0000 C.2     1  UNL1       -0.0994
     17 H           4.1996   -1.7422    0.0000 H       1  UNL1        0.0274
     18 H           4.9966   -1.7422    0.0000 H       1  UNL1        0.0274
     19 H           3.7320    0.8527    0.0000 H       1  UNL1        0.0348
     20 H           5.9534   -1.7718    0.0000 H       1  UNL1        0.0278
     21 H           6.7517   -1.7810    0.0000 H       1  UNL1        0.0278
     22 H           3.1215   -0.6596    0.0000 H       1  UNL1        0.0271
     23 H           3.5200   -1.3499    0.0000 H       1  UNL1        0.0271
     24 H           4.9966    1.2076    0.0000 H       1  UNL1        0.0316
     25 H           4.1996    1.2076    0.0000 H       1  UNL1        0.0316
     26 H           4.8441   -1.7673    0.0000 H       1  UNL1        0.0238
     27 H           5.4641   -2.3873    0.0000 H       1  UNL1        0.0238
     28 H           6.0841   -1.7673    0.0000 H       1  UNL1        0.0238
     29 H           7.4732   -1.3718    0.0000 H       1  UNL1        0.0345
     30 H           7.8750   -0.6820    0.0000 H       1  UNL1        0.0345
     31 H           6.9664    1.7745    0.0000 H       1  UNL1        0.0279
     32 H           6.3393    2.3873    0.0000 H       1  UNL1        0.0279
     33 H           5.7265    1.7601    0.0000 H       1  UNL1        0.0279
     34 H           1.6900    0.7696    0.0000 H       1  UNL1        0.0274
     35 H           1.4631   -0.0773    0.0000 H       1  UNL1        0.0274
     36 H           2.3100   -0.3042    0.0000 H       1  UNL1        0.0274
     37 H           3.4030    2.0427    0.0000 H       1  UNL1        0.0534
     38 H           2.3291    2.0427    0.0000 H       1  UNL1        0.0534
@<TRIPOS>BOND
     1     1    12    2
     2     2     3    1
     3     2     4    1
     4     2     6    1
     5     2     9    1
     6     3     7    1
     7     3    17    1
     8     3    18    1
     9     4     8    1
    10     4    11    2
    11     5     7    1
    12     5     8    1
    13     5    13    1
    14     5    19    1
    15     6    10    1
    16     6    20    1
    17     6    21    1
    18     7    22    1
    19     7    23    1
    20     8    24    1
    21     8    25    1
    22     9    26    1
    23     9    27    1
    24     9    28    1
    25    10    12    1
    26    10    29    1
    27    10    30    1
    28    11    12    1
    29    11    14    1
    30    13    15    1
    31    13    16    2
    32    14    31    1
    33    14    32    1
    34    14    33    1
    35    15    34    1
    36    15    35    1
    37    15    36    1
    38    16    37    1
    39    16    38    1
