@<TRIPOS>MOLECULE
IMPHY002281
 79 79 0 0 0
SMALL
GASTEIGER

@<TRIPOS>ATOM
      1 O           3.8660   -8.8450    0.0000 O.3     1  UNL1       -0.3914
      2 O          10.7942    9.1550    0.0000 O.2     1  UNL1       -0.2930
      3 C           3.0000   -6.3450    0.0000 C.3     1  UNL1       -0.0076
      4 C           3.0000   -7.3450    0.0000 C.3     1  UNL1       -0.0174
      5 C           3.8660   -7.8450    0.0000 C.3     1  UNL1        0.0597
      6 C           3.8660   -5.8450    0.0000 C.2     1  UNL1       -0.0426
      7 C           4.7320   -7.3450    0.0000 C.3     1  UNL1       -0.0053
      8 C           4.7320   -6.3450    0.0000 C.2     1  UNL1       -0.0665
      9 C           2.0000   -6.3450    0.0000 C.3     1  UNL1       -0.0557
     10 C           2.5000   -5.4790    0.0000 C.3     1  UNL1       -0.0557
     11 C           3.8660   -4.8450    0.0000 C.2     1  UNL1       -0.0579
     12 C           5.5981   -5.8450    0.0000 C.3     1  UNL1       -0.0431
     13 C           4.7320   -4.3450    0.0000 C.2     1  UNL1       -0.0586
     14 C           4.7320   -3.3450    0.0000 C.2     1  UNL1       -0.0504
     15 C           3.8660   -2.8450    0.0000 C.3     1  UNL1       -0.0397
     16 C           5.5981   -2.8450    0.0000 C.2     1  UNL1       -0.0588
     17 C           5.5981   -1.8450    0.0000 C.2     1  UNL1       -0.0613
     18 C           6.4641   -1.3450    0.0000 C.2     1  UNL1       -0.0588
     19 C           6.4641   -0.3450    0.0000 C.2     1  UNL1       -0.0504
     20 C           5.5981    0.1550    0.0000 C.3     1  UNL1       -0.0397
     21 C           7.3301    0.1550    0.0000 C.2     1  UNL1       -0.0588
     22 C           7.3301    1.1550    0.0000 C.2     1  UNL1       -0.0615
     23 C           8.1962    1.6550    0.0000 C.2     1  UNL1       -0.0615
     24 C           8.1962    2.6550    0.0000 C.2     1  UNL1       -0.0588
     25 C           9.0622    3.1550    0.0000 C.2     1  UNL1       -0.0504
     26 C           9.0622    4.1550    0.0000 C.2     1  UNL1       -0.0588
     27 C           9.9282    2.6550    0.0000 C.3     1  UNL1       -0.0397
     28 C           9.9282    4.6550    0.0000 C.2     1  UNL1       -0.0613
     29 C          10.7942    6.1550    0.0000 C.2     1  UNL1       -0.0503
     30 C           9.9282    5.6550    0.0000 C.2     1  UNL1       -0.0588
     31 C          11.6603    5.6550    0.0000 C.3     1  UNL1       -0.0397
     32 C          10.7942    7.1550    0.0000 C.2     1  UNL1       -0.0556
     33 C          11.6603    7.6550    0.0000 C.2     1  UNL1       -0.0193
     34 C          11.6603    8.6550    0.0000 C.2     1  UNL1        0.1530
     35 C          12.5263    9.1550    0.0000 C.3     1  UNL1       -0.0020
     36 H           2.3894   -7.2373    0.0000 H       1  UNL1        0.0298
     37 H           2.7880   -7.9276    0.0000 H       1  UNL1        0.0298
     38 H           4.4030   -8.1550    0.0000 H       1  UNL1        0.0596
     39 H           4.9441   -7.9276    0.0000 H       1  UNL1        0.0335
     40 H           5.3426   -7.2373    0.0000 H       1  UNL1        0.0335
     41 H           3.0369   -5.1690    0.0000 H       1  UNL1        0.0238
     42 H           2.1900   -4.9420    0.0000 H       1  UNL1        0.0238
     43 H           1.9631   -5.7890    0.0000 H       1  UNL1        0.0238
     44 H           2.0000   -5.7250    0.0000 H       1  UNL1        0.0238
     45 H           1.3800   -6.3450    0.0000 H       1  UNL1        0.0238
     46 H           2.0000   -6.9650    0.0000 H       1  UNL1        0.0238
     47 H           3.3291   -4.5350    0.0000 H       1  UNL1        0.0621
     48 H           5.9081   -6.3819    0.0000 H       1  UNL1        0.0275
     49 H           6.1350   -5.5350    0.0000 H       1  UNL1        0.0275
     50 H           5.2881   -5.3081    0.0000 H       1  UNL1        0.0275
     51 H           4.4030   -9.1550    0.0000 H       1  UNL1        0.2098
     52 H           5.2690   -4.6550    0.0000 H       1  UNL1        0.0620
     53 H           4.1760   -2.3081    0.0000 H       1  UNL1        0.0278
     54 H           3.3291   -2.5350    0.0000 H       1  UNL1        0.0278
     55 H           3.5560   -3.3819    0.0000 H       1  UNL1        0.0278
     56 H           6.1350   -3.1550    0.0000 H       1  UNL1        0.0620
     57 H           5.0611   -1.5350    0.0000 H       1  UNL1        0.0618
     58 H           7.0010   -1.6550    0.0000 H       1  UNL1        0.0620
     59 H           5.9081    0.6919    0.0000 H       1  UNL1        0.0278
     60 H           5.0611    0.4650    0.0000 H       1  UNL1        0.0278
     61 H           5.2881   -0.3819    0.0000 H       1  UNL1        0.0278
     62 H           7.8671   -0.1550    0.0000 H       1  UNL1        0.0620
     63 H           6.7932    1.4650    0.0000 H       1  UNL1        0.0618
     64 H           8.7331    1.3450    0.0000 H       1  UNL1        0.0618
     65 H           7.6592    2.9650    0.0000 H       1  UNL1        0.0620
     66 H           8.5252    4.4650    0.0000 H       1  UNL1        0.0620
     67 H           9.6182    2.1181    0.0000 H       1  UNL1        0.0278
     68 H          10.4651    2.3450    0.0000 H       1  UNL1        0.0278
     69 H          10.2382    3.1919    0.0000 H       1  UNL1        0.0278
     70 H          10.4651    4.3450    0.0000 H       1  UNL1        0.0618
     71 H           9.3913    5.9650    0.0000 H       1  UNL1        0.0620
     72 H          11.3503    5.1181    0.0000 H       1  UNL1        0.0278
     73 H          12.1972    5.3450    0.0000 H       1  UNL1        0.0278
     74 H          11.9703    6.1919    0.0000 H       1  UNL1        0.0278
     75 H          10.2573    7.4650    0.0000 H       1  UNL1        0.0621
     76 H          12.1972    7.3450    0.0000 H       1  UNL1        0.0652
     77 H          12.8363    8.6181    0.0000 H       1  UNL1        0.0309
     78 H          13.0632    9.4650    0.0000 H       1  UNL1        0.0309
     79 H          12.2163    9.6919    0.0000 H       1  UNL1        0.0309
@<TRIPOS>BOND
     1     5     1    1
     2     1    51    1
     3     2    34    2
     4     3     4    1
     5     3     6    1
     6     3     9    1
     7     3    10    1
     8     4     5    1
     9     4    36    1
    10     4    37    1
    11     5     7    1
    12     5    38    1
    13     6     8    2
    14     6    11    1
    15     7     8    1
    16     7    39    1
    17     7    40    1
    18     8    12    1
    19     9    44    1
    20     9    45    1
    21     9    46    1
    22    10    41    1
    23    10    42    1
    24    10    43    1
    25    11    13    2
    26    11    47    1
    27    12    48    1
    28    12    49    1
    29    12    50    1
    30    13    14    1
    31    13    52    1
    32    14    15    1
    33    14    16    2
    34    15    53    1
    35    15    54    1
    36    15    55    1
    37    16    17    1
    38    16    56    1
    39    17    18    2
    40    17    57    1
    41    18    19    1
    42    18    58    1
    43    19    20    1
    44    19    21    2
    45    20    59    1
    46    20    60    1
    47    20    61    1
    48    21    22    1
    49    21    62    1
    50    22    23    2
    51    22    63    1
    52    23    24    1
    53    23    64    1
    54    24    25    2
    55    24    65    1
    56    25    26    1
    57    25    27    1
    58    26    28    2
    59    26    66    1
    60    27    67    1
    61    27    68    1
    62    27    69    1
    63    28    30    1
    64    28    70    1
    65    29    30    2
    66    29    31    1
    67    29    32    1
    68    30    71    1
    69    31    72    1
    70    31    73    1
    71    31    74    1
    72    32    33    2
    73    32    75    1
    74    33    34    1
    75    33    76    1
    76    34    35    1
    77    35    77    1
    78    35    78    1
    79    35    79    1
