@<TRIPOS>MOLECULE
IMPHY004934
 14 13 0 0 0
SMALL
GASTEIGER

@<TRIPOS>ATOM
      1 O           2.0000   -0.0600    0.0000 O.2     1  UNL1       -0.2961
      2 C           3.7320   -0.0600    0.0000 C.2     1  UNL1       -0.0154
      3 C           4.5981    0.4400    0.0000 C.2     1  UNL1       -0.0812
      4 C           3.7320   -1.0600    0.0000 C.3     1  UNL1       -0.0370
      5 C           5.4641   -0.0600    0.0000 C.3     1  UNL1       -0.0462
      6 C           2.8660    0.4400    0.0000 C.2     1  UNL1        0.1457
      7 H           4.5981    1.0600    0.0000 H       1  UNL1        0.0573
      8 H           3.1120   -1.0600    0.0000 H       1  UNL1        0.0278
      9 H           3.7320   -1.6800    0.0000 H       1  UNL1        0.0278
     10 H           4.3520   -1.0600    0.0000 H       1  UNL1        0.0278
     11 H           5.1541   -0.5969    0.0000 H       1  UNL1        0.0272
     12 H           6.0010   -0.3700    0.0000 H       1  UNL1        0.0272
     13 H           5.7741    0.4769    0.0000 H       1  UNL1        0.0272
     14 H           2.8660    1.0600    0.0000 H       1  UNL1        0.1078
@<TRIPOS>BOND
     1     1     6    2
     2     2     3    2
     3     2     4    1
     4     2     6    1
     5     3     5    1
     6     3     7    1
     7     4     8    1
     8     4     9    1
     9     4    10    1
    10     5    11    1
    11     5    12    1
    12     5    13    1
    13     6    14    1
