@<TRIPOS>MOLECULE
IMPHY014295
 51 51 0 0 0
SMALL
GASTEIGER

@<TRIPOS>ATOM
      1 O          16.0273   -0.9260    0.0000 O.3     1  UNL1       -0.3679
      2 O           2.5369    0.4400    0.0000 O.3     1  UNL1       -0.4806
      3 O           3.4030   -1.0600    0.0000 O.2     1  UNL1       -0.2510
      4 C          16.5273   -0.0600    0.0000 C.3     1  UNL1        0.0853
      5 C          15.5273   -0.0600    0.0000 C.3     1  UNL1        0.0886
      6 C          17.3933    0.4400    0.0000 C.3     1  UNL1       -0.0270
      7 C          14.6613    0.4400    0.0000 C.3     1  UNL1       -0.0059
      8 C          18.2594   -0.0600    0.0000 C.3     1  UNL1       -0.0628
      9 C          13.7953   -0.0600    0.0000 C.2     1  UNL1       -0.0851
     10 C          12.9292    0.4400    0.0000 C.2     1  UNL1       -0.0841
     11 C           6.8671   -0.0600    0.0000 C.3     1  UNL1       -0.0530
     12 C           7.7331    0.4400    0.0000 C.3     1  UNL1       -0.0528
     13 C           6.0010    0.4400    0.0000 C.3     1  UNL1       -0.0526
     14 C           8.5991   -0.0600    0.0000 C.3     1  UNL1       -0.0496
     15 C          12.0632   -0.0600    0.0000 C.3     1  UNL1       -0.0165
     16 C           5.1350   -0.0600    0.0000 C.3     1  UNL1       -0.0430
     17 C           9.4651    0.4400    0.0000 C.3     1  UNL1       -0.0348
     18 C          11.1972    0.4400    0.0000 C.2     1  UNL1       -0.0842
     19 C          10.3312   -0.0600    0.0000 C.2     1  UNL1       -0.0876
     20 C           4.2690    0.4400    0.0000 C.3     1  UNL1        0.0448
     21 C           3.4030   -0.0600    0.0000 C.2     1  UNL1        0.3047
     22 H          16.9657   -0.4984    0.0000 H       1  UNL1        0.0622
     23 H          15.0889   -0.4984    0.0000 H       1  UNL1        0.0625
     24 H          17.7919    0.9149    0.0000 H       1  UNL1        0.0288
     25 H          16.9948    0.9149    0.0000 H       1  UNL1        0.0288
     26 H          15.0598    0.9149    0.0000 H       1  UNL1        0.0333
     27 H          14.2628    0.9149    0.0000 H       1  UNL1        0.0333
     28 H          17.9494   -0.5969    0.0000 H       1  UNL1        0.0231
     29 H          18.7963   -0.3700    0.0000 H       1  UNL1        0.0231
     30 H          18.5694    0.4769    0.0000 H       1  UNL1        0.0231
     31 H          13.7953   -0.6800    0.0000 H       1  UNL1        0.0570
     32 H           6.4685   -0.5349    0.0000 H       1  UNL1        0.0265
     33 H           7.2656   -0.5349    0.0000 H       1  UNL1        0.0265
     34 H           8.1316    0.9149    0.0000 H       1  UNL1        0.0265
     35 H           7.3346    0.9149    0.0000 H       1  UNL1        0.0265
     36 H          12.9292    1.0600    0.0000 H       1  UNL1        0.0572
     37 H           6.3996    0.9149    0.0000 H       1  UNL1        0.0265
     38 H           5.6025    0.9149    0.0000 H       1  UNL1        0.0265
     39 H           8.2006   -0.5349    0.0000 H       1  UNL1        0.0268
     40 H           8.9976   -0.5349    0.0000 H       1  UNL1        0.0268
     41 H           4.7365   -0.5349    0.0000 H       1  UNL1        0.0270
     42 H           5.5335   -0.5349    0.0000 H       1  UNL1        0.0270
     43 H          11.6647   -0.5349    0.0000 H       1  UNL1        0.0350
     44 H          12.4617   -0.5349    0.0000 H       1  UNL1        0.0350
     45 H           9.8637    0.9149    0.0000 H       1  UNL1        0.0307
     46 H           9.0666    0.9149    0.0000 H       1  UNL1        0.0307
     47 H          10.3312   -0.6800    0.0000 H       1  UNL1        0.0569
     48 H          11.1972    1.0600    0.0000 H       1  UNL1        0.0572
     49 H           4.6675    0.9149    0.0000 H       1  UNL1        0.0377
     50 H           3.8705    0.9149    0.0000 H       1  UNL1        0.0377
     51 H           2.0000    0.1300    0.0000 H       1  UNL1        0.2951
@<TRIPOS>BOND
     1     1     4    1
     2     1     5    1
     3     2    21    1
     4     2    51    1
     5     3    21    2
     6     4     5    1
     7     4     6    1
     8     4    22    1
     9     5     7    1
    10     5    23    1
    11     6     8    1
    12     6    24    1
    13     6    25    1
    14     7     9    1
    15     7    26    1
    16     7    27    1
    17     8    28    1
    18     8    29    1
    19     8    30    1
    20     9    10    2
    21     9    31    1
    22    10    15    1
    23    10    36    1
    24    11    12    1
    25    11    13    1
    26    11    32    1
    27    11    33    1
    28    12    14    1
    29    12    34    1
    30    12    35    1
    31    13    16    1
    32    13    37    1
    33    13    38    1
    34    14    17    1
    35    14    39    1
    36    14    40    1
    37    15    18    1
    38    15    43    1
    39    15    44    1
    40    16    20    1
    41    16    41    1
    42    16    42    1
    43    17    19    1
    44    17    45    1
    45    17    46    1
    46    18    19    2
    47    18    48    1
    48    19    47    1
    49    20    21    1
    50    20    49    1
    51    20    50    1
