@<TRIPOS>MOLECULE
IMPHY007475
 82 86 0 0 0
SMALL
GASTEIGER

@<TRIPOS>ATOM
      1 O           5.6328   -3.2628    0.0000 O.3     1  UNL1       -0.3912
      2 O          10.9848    2.9508    0.0000 O.3     1  UNL1       -0.3912
      3 C           7.3770   -0.1936    0.0000 C.3     1  UNL1       -0.0193
      4 C           7.3770    0.8064    0.0000 C.3     1  UNL1       -0.0257
      5 C           8.2709    1.3411    0.0000 C.3     1  UNL1       -0.0250
      6 C           6.5109   -0.6936    0.0000 C.3     1  UNL1       -0.0028
      7 C           9.1770    0.8272    0.0000 C.3     1  UNL1       -0.0278
      8 C           8.2709   -0.7283    0.0000 C.3     1  UNL1       -0.0463
      9 C           5.6449   -0.1936    0.0000 C.2     1  UNL1       -0.0630
     10 C           4.7349   -0.7004    0.0000 C.3     1  UNL1       -0.0088
     11 C           4.7269   -1.7420    0.0000 C.3     1  UNL1        0.0007
     12 C           9.1770   -0.2144    0.0000 C.3     1  UNL1       -0.0486
     13 C          10.1208    1.3625    0.0000 C.3     1  UNL1       -0.0056
     14 C           6.5270   -1.7351    0.0000 C.3     1  UNL1       -0.0167
     15 C           6.5109    1.3064    0.0000 C.3     1  UNL1       -0.0306
     16 C           8.2458    2.4258    0.0000 C.3     1  UNL1       -0.0447
     17 C           5.6290   -2.2629    0.0000 C.3     1  UNL1        0.0620
     18 C           7.7191   -1.1333    0.0000 C.3     1  UNL1       -0.0585
     19 C           5.6449    0.8064    0.0000 C.2     1  UNL1       -0.0836
     20 C           3.8081   -0.1364    0.0000 C.3     1  UNL1       -0.0342
     21 C          10.1208    2.4474    0.0000 C.3     1  UNL1        0.0606
     22 C           7.4010    1.8344    0.0000 C.3     1  UNL1       -0.0590
     23 C           7.1537   -1.4596    0.0000 C.3     1  UNL1       -0.0552
     24 C           9.1770    2.9827    0.0000 C.3     1  UNL1       -0.0258
     25 C           3.7914   -2.2918    0.0000 C.3     1  UNL1       -0.0445
     26 C           2.8602   -0.6643    0.0000 C.3     1  UNL1       -0.0407
     27 C           2.8518   -1.7493    0.0000 C.3     1  UNL1       -0.0496
     28 C           4.7192   -2.7420    0.0000 C.3     1  UNL1       -0.0567
     29 C          11.1207    1.3586    0.0000 C.3     1  UNL1       -0.0572
     30 C          10.6174    0.4945    0.0000 C.3     1  UNL1       -0.0572
     31 C           3.8273    0.8635    0.0000 C.3     1  UNL1       -0.0616
     32 C           2.0000   -0.1543    0.0000 C.3     1  UNL1       -0.0622
     33 H           8.1163    0.3871    0.0000 H       1  UNL1        0.0315
     34 H           9.9114    0.3994    0.0000 H       1  UNL1        0.0312
     35 H           7.8663   -1.1980    0.0000 H       1  UNL1        0.0271
     36 H           8.6645   -1.2073    0.0000 H       1  UNL1        0.0271
     37 H           4.7513    0.1494    0.0000 H       1  UNL1        0.0355
     38 H           9.3860   -0.7981    0.0000 H       1  UNL1        0.0268
     39 H           9.7878   -0.1083    0.0000 H       1  UNL1        0.0268
     40 H           6.7450   -2.3155    0.0000 H       1  UNL1        0.0299
     41 H           7.1361   -1.6196    0.0000 H       1  UNL1        0.0299
     42 H           6.9095    1.7814    0.0000 H       1  UNL1        0.0310
     43 H           6.1124    1.7814    0.0000 H       1  UNL1        0.0310
     44 H           8.0233    3.0045    0.0000 H       1  UNL1        0.0271
     45 H           7.6376    2.3056    0.0000 H       1  UNL1        0.0271
     46 H           6.1677   -2.5698    0.0000 H       1  UNL1        0.0599
     47 H           7.1365   -1.3454    0.0000 H       1  UNL1        0.0235
     48 H           7.9312   -1.7158    0.0000 H       1  UNL1        0.0235
     49 H           8.3017   -0.9211    0.0000 H       1  UNL1        0.0235
     50 H           5.1080    1.1164    0.0000 H       1  UNL1        0.0572
     51 H           4.3515    0.1622    0.0000 H       1  UNL1        0.0307
     52 H          10.6583    2.1385    0.0000 H       1  UNL1        0.0599
     53 H           7.7069    2.3737    0.0000 H       1  UNL1        0.0235
     54 H           6.8617    2.1402    0.0000 H       1  UNL1        0.0235
     55 H           7.0952    1.2951    0.0000 H       1  UNL1        0.0235
     56 H           6.6788   -1.8582    0.0000 H       1  UNL1        0.0238
     57 H           7.5522   -1.9346    0.0000 H       1  UNL1        0.0238
     58 H           7.6287   -1.0611    0.0000 H       1  UNL1        0.0238
     59 H           9.5706    3.4617    0.0000 H       1  UNL1        0.0290
     60 H           8.7724    3.4525    0.0000 H       1  UNL1        0.0290
     61 H           3.3942   -2.7677    0.0000 H       1  UNL1        0.0272
     62 H           4.1924   -2.7647    0.0000 H       1  UNL1        0.0272
     63 H           2.8686   -0.0444    0.0000 H       1  UNL1        0.0301
     64 H           2.2418   -1.6385    0.0000 H       1  UNL1        0.0268
     65 H           2.6383   -2.3313    0.0000 H       1  UNL1        0.0268
     66 H           4.0992   -2.7372    0.0000 H       1  UNL1        0.0236
     67 H           4.7144   -3.3620    0.0000 H       1  UNL1        0.0236
     68 H           5.3392   -2.7468    0.0000 H       1  UNL1        0.0236
     69 H          11.1184    0.7386    0.0000 H       1  UNL1        0.0236
     70 H          11.7407    1.3562    0.0000 H       1  UNL1        0.0236
     71 H          11.1231    1.9786    0.0000 H       1  UNL1        0.0236
     72 H          10.0793    0.1866    0.0000 H       1  UNL1        0.0236
     73 H          10.9253   -0.0436    0.0000 H       1  UNL1        0.0236
     74 H          11.1555    0.8024    0.0000 H       1  UNL1        0.0236
     75 H           4.4472    0.8515    0.0000 H       1  UNL1        0.0233
     76 H           3.8393    1.4833    0.0000 H       1  UNL1        0.0233
     77 H           3.2075    0.8754    0.0000 H       1  UNL1        0.0233
     78 H           6.1709   -3.5708    0.0000 H       1  UNL1        0.2098
     79 H           2.3162    0.3790    0.0000 H       1  UNL1        0.0233
     80 H           1.4667    0.1619    0.0000 H       1  UNL1        0.0233
     81 H           1.6838   -0.6876    0.0000 H       1  UNL1        0.0233
     82 H          10.9825    3.5708    0.0000 H       1  UNL1        0.2098
@<TRIPOS>BOND
     1    17     1    1
     2     1    78    1
     3    21     2    1
     4     2    82    1
     5     3     4    1
     6     3     6    1
     7     3     8    1
     8     3    18    1
     9     4     5    1
    10     4    15    1
    11     4    33    1
    12     5     7    1
    13     5    16    1
    14     5    22    1
    15     6     9    1
    16     6    14    1
    17     6    23    1
    18     7    12    1
    19     7    13    1
    20     7    34    1
    21     8    12    1
    22     8    35    1
    23     8    36    1
    24     9    10    1
    25     9    19    2
    26    10    11    1
    27    10    20    1
    28    10    37    1
    29    11    17    1
    30    11    25    1
    31    11    28    1
    32    12    38    1
    33    12    39    1
    34    13    21    1
    35    13    29    1
    36    13    30    1
    37    14    17    1
    38    14    40    1
    39    14    41    1
    40    15    19    1
    41    15    42    1
    42    15    43    1
    43    16    24    1
    44    16    44    1
    45    16    45    1
    46    17    46    1
    47    18    47    1
    48    18    48    1
    49    18    49    1
    50    19    50    1
    51    20    26    1
    52    20    31    1
    53    20    51    1
    54    21    24    1
    55    21    52    1
    56    22    53    1
    57    22    54    1
    58    22    55    1
    59    23    56    1
    60    23    57    1
    61    23    58    1
    62    24    59    1
    63    24    60    1
    64    25    27    1
    65    25    61    1
    66    25    62    1
    67    26    27    1
    68    26    32    1
    69    26    63    1
    70    27    64    1
    71    27    65    1
    72    28    66    1
    73    28    67    1
    74    28    68    1
    75    29    69    1
    76    29    70    1
    77    29    71    1
    78    30    72    1
    79    30    73    1
    80    30    74    1
    81    31    75    1
    82    31    76    1
    83    31    77    1
    84    32    79    1
    85    32    80    1
    86    32    81    1
