@<TRIPOS>MOLECULE
IMPHY017236
 18 18 0 0 0
SMALL
GASTEIGER

@<TRIPOS>ATOM
      1 O           3.7601   -1.1739    0.0000 O.3     1  UNL1       -0.4613
      2 O           2.0000   -0.8952    0.0000 O.2     1  UNL1       -0.2508
      3 C           4.2601    0.3649    0.0000 C.3     1  UNL1        0.0031
      4 C           4.5691   -0.5861    0.0000 C.3     1  UNL1        0.1033
      5 C           3.2601    0.3649    0.0000 C.3     1  UNL1        0.0508
      6 C           4.8479    1.1739    0.0000 C.3     1  UNL1       -0.0586
      7 C           2.9511   -0.5861    0.0000 C.2     1  UNL1        0.3077
      8 C           5.5202   -0.8952    0.0000 C.3     1  UNL1       -0.0274
      9 H           4.8724    0.2679    0.0000 H       1  UNL1        0.0339
     10 H           4.6661   -1.1985    0.0000 H       1  UNL1        0.0734
     11 H           3.3249    0.9815    0.0000 H       1  UNL1        0.0381
     12 H           2.6536    0.4938    0.0000 H       1  UNL1        0.0381
     13 H           5.3494    0.8095    0.0000 H       1  UNL1        0.0234
     14 H           5.2123    1.6755    0.0000 H       1  UNL1        0.0234
     15 H           4.3463    1.5384    0.0000 H       1  UNL1        0.0234
     16 H           5.3286   -1.4848    0.0000 H       1  UNL1        0.0265
     17 H           6.1098   -1.0868    0.0000 H       1  UNL1        0.0265
     18 H           5.7117   -0.3055    0.0000 H       1  UNL1        0.0265
@<TRIPOS>BOND
     1     1     4    1
     2     1     7    1
     3     2     7    2
     4     3     4    1
     5     3     5    1
     6     3     6    1
     7     3     9    1
     8     4     8    1
     9     4    10    1
    10     5     7    1
    11     5    11    1
    12     5    12    1
    13     6    13    1
    14     6    14    1
    15     6    15    1
    16     8    16    1
    17     8    17    1
    18     8    18    1
