@<TRIPOS>MOLECULE
IMPHY002411
 41 42 0 0 0
SMALL
GASTEIGER

@<TRIPOS>ATOM
      1 O           5.3781   -1.5795    0.0000 O.3     1  UNL1       -0.3652
      2 O           2.0000   -1.3007    0.0000 O.3     1  UNL1       -0.4571
      3 O           6.6030    0.9646    0.0000 O.2     1  UNL1       -0.2973
      4 O           2.8090    0.2871    0.0000 O.2     1  UNL1       -0.2452
      5 C           6.1871   -0.9917    0.0000 C.3     1  UNL1        0.0743
      6 C           5.8781   -0.0406    0.0000 C.3     1  UNL1       -0.0209
      7 C           4.8781   -0.0406    0.0000 C.3     1  UNL1       -0.0196
      8 C           4.5691   -0.9917    0.0000 C.3     1  UNL1        0.0909
      9 C           7.1382   -0.6827    0.0000 C.3     1  UNL1        0.0347
     10 C           6.7749   -1.8007    0.0000 C.3     1  UNL1       -0.0354
     11 C           3.6180   -1.3007    0.0000 C.2     1  UNL1        0.0643
     12 C           7.3461    0.2955    0.0000 C.2     1  UNL1        0.1363
     13 C           8.2972    0.6045    0.0000 C.3     1  UNL1        0.0083
     14 C           8.5051    1.5826    0.0000 C.3     1  UNL1       -0.0401
     15 C           3.3090   -2.2518    0.0000 C.2     1  UNL1       -0.0346
     16 C           2.8090   -0.7129    0.0000 C.2     1  UNL1        0.3378
     17 C           2.3090   -2.2518    0.0000 C.3     1  UNL1        0.1119
     18 C           9.4561    1.8916    0.0000 C.3     1  UNL1       -0.0623
     19 C           7.7619    2.2518    0.0000 C.3     1  UNL1       -0.0623
     20 H           6.4846    0.0883    0.0000 H       1  UNL1        0.0294
     21 H           5.8133    0.5760    0.0000 H       1  UNL1        0.0294
     22 H           4.9429    0.5760    0.0000 H       1  UNL1        0.0294
     23 H           4.2717    0.0883    0.0000 H       1  UNL1        0.0294
     24 H           4.4721   -1.6041    0.0000 H       1  UNL1        0.0649
     25 H           7.2245   -1.2966    0.0000 H       1  UNL1        0.0370
     26 H           7.7578   -0.7043    0.0000 H       1  UNL1        0.0370
     27 H           6.2733   -2.1651    0.0000 H       1  UNL1        0.0257
     28 H           7.1393   -2.3023    0.0000 H       1  UNL1        0.0257
     29 H           7.2765   -1.4363    0.0000 H       1  UNL1        0.0257
     30 H           8.3834   -0.0095    0.0000 H       1  UNL1        0.0344
     31 H           8.9168    0.5829    0.0000 H       1  UNL1        0.0344
     32 H           7.9154    1.3910    0.0000 H       1  UNL1        0.0299
     33 H           3.6734   -2.7534    0.0000 H       1  UNL1        0.0611
     34 H           1.7026   -2.3807    0.0000 H       1  UNL1        0.0743
     35 H           2.3738   -2.8684    0.0000 H       1  UNL1        0.0743
     36 H           8.1768    2.7125    0.0000 H       1  UNL1        0.0232
     37 H           9.6477    1.3020    0.0000 H       1  UNL1        0.0232
     38 H          10.0458    2.0832    0.0000 H       1  UNL1        0.0232
     39 H           9.2645    2.4813    0.0000 H       1  UNL1        0.0232
     40 H           7.3012    2.6666    0.0000 H       1  UNL1        0.0232
     41 H           7.3471    1.7910    0.0000 H       1  UNL1        0.0232
@<TRIPOS>BOND
     1     1     5    1
     2     1     8    1
     3     2    16    1
     4     2    17    1
     5     3    12    2
     6     4    16    2
     7     5     6    1
     8     5     9    1
     9     5    10    1
    10     6     7    1
    11     6    20    1
    12     6    21    1
    13     7     8    1
    14     7    22    1
    15     7    23    1
    16     8    11    1
    17     8    24    1
    18     9    12    1
    19     9    25    1
    20     9    26    1
    21    10    27    1
    22    10    28    1
    23    10    29    1
    24    11    15    2
    25    11    16    1
    26    12    13    1
    27    13    14    1
    28    13    30    1
    29    13    31    1
    30    14    18    1
    31    14    19    1
    32    14    32    1
    33    15    17    1
    34    15    33    1
    35    17    34    1
    36    17    35    1
    37    18    37    1
    38    18    38    1
    39    18    39    1
    40    19    36    1
    41    19    40    1
    42    19    41    1
