@<TRIPOS>MOLECULE
IMPHY006580
 27 29 0 0 0
SMALL
GASTEIGER

@<TRIPOS>ATOM
      1 O           4.6660   -1.4827    0.0000 O.2     1  UNL1       -0.4546
      2 O           8.1962    0.5415    0.0000 O.3     1  UNL1       -0.4951
      3 O           4.6660    1.5173    0.0000 O.2     1  UNL1       -0.2864
      4 C           5.5321    0.0173    0.0000 C.ar    1  UNL1        0.0680
      5 C           3.8000    0.0173    0.0000 C.ar    1  UNL1        0.0646
      6 C           5.5321   -0.9827    0.0000 C.ar    1  UNL1        0.1395
      7 C           3.8000   -0.9827    0.0000 C.ar    1  UNL1        0.1393
      8 C           4.6660    0.5173    0.0000 C.ar    1  UNL1        0.2003
      9 C           6.4260    0.5520    0.0000 C.ar    1  UNL1       -0.0056
     10 C           6.4260   -1.5173    0.0000 C.ar    1  UNL1       -0.0152
     11 C           7.3321    0.0381    0.0000 C.ar    1  UNL1        0.1210
     12 C           2.9061    0.5520    0.0000 C.ar    1  UNL1       -0.0474
     13 C           2.9061   -1.5173    0.0000 C.ar    1  UNL1       -0.0186
     14 C           7.3321   -1.0035    0.0000 C.ar    1  UNL1       -0.0164
     15 C           2.0000    0.0381    0.0000 C.ar    1  UNL1       -0.0609
     16 C           2.0000   -1.0035    0.0000 C.ar    1  UNL1       -0.0582
     17 C           9.0641    0.0448    0.0000 C.3     1  UNL1        0.0788
     18 H           6.4188    1.1720    0.0000 H       1  UNL1        0.0662
     19 H           6.4188   -2.1373    0.0000 H       1  UNL1        0.0656
     20 H           2.9132    1.1720    0.0000 H       1  UNL1        0.0626
     21 H           2.9132   -2.1373    0.0000 H       1  UNL1        0.0654
     22 H           7.8678   -1.3156    0.0000 H       1  UNL1        0.0655
     23 H           1.4643    0.3502    0.0000 H       1  UNL1        0.0618
     24 H           1.4643   -1.3156    0.0000 H       1  UNL1        0.0619
     25 H           8.7562   -0.4933    0.0000 H       1  UNL1        0.0660
     26 H           9.6022   -0.2631    0.0000 H       1  UNL1        0.0660
     27 H           9.3720    0.5829    0.0000 H       1  UNL1        0.0660
@<TRIPOS>BOND
     1     1     6   ar
     2     1     7   ar
     3     2    11    1
     4     2    17    1
     5     3     8    2
     6     4     6   ar
     7     4     8   ar
     8     4     9   ar
     9     5     7   ar
    10     5     8   ar
    11     5    12   ar
    12     6    10   ar
    13     7    13   ar
    14     9    11   ar
    15     9    18    1
    16    10    14   ar
    17    10    19    1
    18    11    14   ar
    19    12    15   ar
    20    12    20    1
    21    13    16   ar
    22    13    21    1
    23    14    22    1
    24    15    16   ar
    25    15    23    1
    26    16    24    1
    27    17    25    1
    28    17    26    1
    29    17    27    1
