@<TRIPOS>MOLECULE
IMPHY004373
 26 25 0 0 0
SMALL
GASTEIGER

@<TRIPOS>ATOM
      1 O           2.5369    0.4400    0.0000 O.3     1  UNL1       -0.4775
      2 O           3.4030   -1.0600    0.0000 O.2     1  UNL1       -0.2458
      3 C          10.3312   -0.0600    0.0000 C.3     1  UNL1       -0.0525
      4 C           9.4651    0.4400    0.0000 C.3     1  UNL1       -0.0347
      5 C          11.1972    0.4400    0.0000 C.3     1  UNL1       -0.0650
      6 C           8.5991   -0.0600    0.0000 C.2     1  UNL1       -0.0840
      7 C           7.7331    0.4400    0.0000 C.2     1  UNL1       -0.0657
      8 C           6.8671   -0.0600    0.0000 C.2     1  UNL1       -0.0621
      9 C           6.0010    0.4400    0.0000 C.2     1  UNL1       -0.0616
     10 C           5.1350   -0.0600    0.0000 C.2     1  UNL1       -0.0550
     11 C           4.2690    0.4400    0.0000 C.2     1  UNL1        0.0223
     12 C           3.4030   -0.0600    0.0000 C.2     1  UNL1        0.3295
     13 H           9.9326   -0.5349    0.0000 H       1  UNL1        0.0266
     14 H          10.7297   -0.5349    0.0000 H       1  UNL1        0.0266
     15 H           9.8637    0.9149    0.0000 H       1  UNL1        0.0307
     16 H           9.0666    0.9149    0.0000 H       1  UNL1        0.0307
     17 H          11.5072   -0.0969    0.0000 H       1  UNL1        0.0230
     18 H          11.7341    0.7500    0.0000 H       1  UNL1        0.0230
     19 H          10.8872    0.9769    0.0000 H       1  UNL1        0.0230
     20 H           8.5991   -0.6800    0.0000 H       1  UNL1        0.0572
     21 H           7.7331    1.0600    0.0000 H       1  UNL1        0.0614
     22 H           6.8671   -0.6800    0.0000 H       1  UNL1        0.0617
     23 H           6.0010    1.0600    0.0000 H       1  UNL1        0.0618
     24 H           5.1350   -0.6800    0.0000 H       1  UNL1        0.0620
     25 H           4.2690    1.0600    0.0000 H       1  UNL1        0.0689
     26 H           2.0000    0.1300    0.0000 H       1  UNL1        0.2954
@<TRIPOS>BOND
     1     1    12    1
     2     1    26    1
     3     2    12    2
     4     3     4    1
     5     3     5    1
     6     3    13    1
     7     3    14    1
     8     4     6    1
     9     4    15    1
    10     4    16    1
    11     5    17    1
    12     5    18    1
    13     5    19    1
    14     6     7    2
    15     6    20    1
    16     7     8    1
    17     7    21    1
    18     8     9    2
    19     8    22    1
    20     9    10    1
    21     9    23    1
    22    10    11    2
    23    10    24    1
    24    11    12    1
    25    11    25    1
