@<TRIPOS>MOLECULE
IMPHY009827
 26 25 0 0 0
SMALL
GASTEIGER

@<TRIPOS>ATOM
      1 C           3.7320   -0.3170    0.0000 C.3     1  UNL1        0.0012
      2 C           3.2320    0.5490    0.0000 C.3     1  UNL1       -0.0529
      3 C           4.2320   -1.1830    0.0000 C.3     1  UNL1       -0.0529
      4 C           4.5981    0.1830    0.0000 C.2     1  UNL1       -0.0744
      5 C           2.8660   -0.8170    0.0000 C.2     1  UNL1       -0.0817
      6 C           5.4641   -0.3170    0.0000 C.2     1  UNL1       -0.0625
      7 C           6.3301    0.1830    0.0000 C.2     1  UNL1       -0.0578
      8 C           2.0000   -0.3170    0.0000 C.2     1  UNL1       -0.1018
      9 C           7.1962   -0.3170    0.0000 C.3     1  UNL1       -0.0403
     10 C           6.3301    1.1830    0.0000 C.2     1  UNL1       -0.0958
     11 H           3.6951   -1.4930    0.0000 H       1  UNL1        0.0241
     12 H           4.5420   -1.7200    0.0000 H       1  UNL1        0.0241
     13 H           4.7690   -0.8730    0.0000 H       1  UNL1        0.0241
     14 H           3.7690    0.8590    0.0000 H       1  UNL1        0.0241
     15 H           2.9220    1.0860    0.0000 H       1  UNL1        0.0241
     16 H           2.6951    0.2390    0.0000 H       1  UNL1        0.0241
     17 H           4.5981    0.8030    0.0000 H       1  UNL1        0.0581
     18 H           2.8660   -1.4370    0.0000 H       1  UNL1        0.0575
     19 H           5.4641   -0.9370    0.0000 H       1  UNL1        0.0617
     20 H           2.0000    0.3030    0.0000 H       1  UNL1        0.0532
     21 H           1.4631   -0.6270    0.0000 H       1  UNL1        0.0532
     22 H           6.8862   -0.8539    0.0000 H       1  UNL1        0.0277
     23 H           7.7331   -0.6270    0.0000 H       1  UNL1        0.0277
     24 H           7.5062    0.2199    0.0000 H       1  UNL1        0.0277
     25 H           6.8671    1.4930    0.0000 H       1  UNL1        0.0537
     26 H           5.7932    1.4930    0.0000 H       1  UNL1        0.0537
@<TRIPOS>BOND
     1     1     2    1
     2     1     3    1
     3     1     4    1
     4     1     5    1
     5     2    14    1
     6     2    15    1
     7     2    16    1
     8     3    11    1
     9     3    12    1
    10     3    13    1
    11     4     6    2
    12     4    17    1
    13     5     8    2
    14     5    18    1
    15     6     7    1
    16     6    19    1
    17     7     9    1
    18     7    10    2
    19     8    20    1
    20     8    21    1
    21     9    22    1
    22     9    23    1
    23     9    24    1
    24    10    25    1
    25    10    26    1
