@<TRIPOS>MOLECULE
IMPHY014656
 52 55 0 0 0
SMALL
GASTEIGER

@<TRIPOS>ATOM
      1 O           5.1350   -1.4221    0.0000 O.3     1  UNL1       -0.3609
      2 O           2.5369   -0.9221    0.0000 O.3     1  UNL1       -0.3862
      3 O           2.5369   -2.9221    0.0000 O.3     1  UNL1       -0.3865
      4 O           4.2690   -3.9221    0.0000 O.3     1  UNL1       -0.3865
      5 O           6.0010   -3.9221    0.0000 O.3     1  UNL1       -0.3924
      6 O           6.0290    0.0433    0.0000 O.2     1  UNL1       -0.4615
      7 O           2.5369    0.0779    0.0000 O.3     1  UNL1       -0.5062
      8 O           4.2690    3.0779    0.0000 O.3     1  UNL1       -0.5058
      9 O           6.0174    3.1125    0.0000 O.2     1  UNL1       -0.2863
     10 O           8.6709    0.6054    0.0000 O.3     1  UNL1       -0.5060
     11 O          10.3914    3.6121    0.0000 O.3     1  UNL1       -0.5066
     12 C           3.4030   -1.4221    0.0000 C.3     1  UNL1        0.1139
     13 C           3.4030   -2.4221    0.0000 C.3     1  UNL1        0.1121
     14 C           4.2690   -0.9221    0.0000 C.3     1  UNL1        0.1193
     15 C           4.2690   -2.9221    0.0000 C.3     1  UNL1        0.1117
     16 C           5.1350   -2.4221    0.0000 C.3     1  UNL1        0.1108
     17 C           4.2690    0.0779    0.0000 C.ar    1  UNL1        0.0682
     18 C           6.0010   -2.9221    0.0000 C.3     1  UNL1        0.0729
     19 C           5.1350    0.5779    0.0000 C.ar    1  UNL1        0.1511
     20 C           3.4030    0.5779    0.0000 C.ar    1  UNL1        0.1296
     21 C           5.1350    1.5779    0.0000 C.ar    1  UNL1        0.1064
     22 C           3.4030    1.5779    0.0000 C.ar    1  UNL1        0.0226
     23 C           4.2690    2.0779    0.0000 C.ar    1  UNL1        0.1347
     24 C           6.0290    2.1126    0.0000 C.ar    1  UNL1        0.2038
     25 C           6.9350    1.5987    0.0000 C.ar    1  UNL1        0.0679
     26 C           6.9350    0.5571    0.0000 C.ar    1  UNL1        0.1040
     27 C           7.7991    2.1021    0.0000 C.ar    1  UNL1        0.0304
     28 C           8.6671    1.6054    0.0000 C.ar    1  UNL1        0.1282
     29 C           7.7953    3.1021    0.0000 C.ar    1  UNL1       -0.0469
     30 C           9.5312    2.1088    0.0000 C.ar    1  UNL1        0.0219
     31 C           8.6594    3.6054    0.0000 C.ar    1  UNL1       -0.0194
     32 C           9.5273    3.1087    0.0000 C.ar    1  UNL1        0.1204
     33 H           3.4030   -0.8021    0.0000 H       1  UNL1        0.0649
     34 H           3.4030   -3.0421    0.0000 H       1  UNL1        0.0647
     35 H           4.8059   -0.6121    0.0000 H       1  UNL1        0.0676
     36 H           4.8059   -3.2321    0.0000 H       1  UNL1        0.0647
     37 H           5.6720   -2.1121    0.0000 H       1  UNL1        0.0646
     38 H           6.6116   -3.0297    0.0000 H       1  UNL1        0.0584
     39 H           6.2131   -2.3395    0.0000 H       1  UNL1        0.0584
     40 H           2.0000   -1.2321    0.0000 H       1  UNL1        0.2100
     41 H           2.5369   -3.5421    0.0000 H       1  UNL1        0.2100
     42 H           3.7320   -4.2321    0.0000 H       1  UNL1        0.2100
     43 H           2.8660    1.8879    0.0000 H       1  UNL1        0.0691
     44 H           6.5380   -4.2321    0.0000 H       1  UNL1        0.2095
     45 H           7.4708    0.2450    0.0000 H       1  UNL1        0.1037
     46 H           2.0000    0.3879    0.0000 H       1  UNL1        0.2922
     47 H           3.7320    3.3879    0.0000 H       1  UNL1        0.2922
     48 H           7.2571    3.4100    0.0000 H       1  UNL1        0.0626
     49 H          10.0693    1.8008    0.0000 H       1  UNL1        0.0691
     50 H           8.6570    4.2254    0.0000 H       1  UNL1        0.0654
     51 H           9.2090    0.2975    0.0000 H       1  UNL1        0.2922
     52 H          10.3890    4.2321    0.0000 H       1  UNL1        0.2921
@<TRIPOS>BOND
     1     1    14    1
     2     1    16    1
     3    12     2    1
     4     2    40    1
     5    13     3    1
     6     3    41    1
     7    15     4    1
     8     4    42    1
     9     5    18    1
    10     5    44    1
    11     6    19   ar
    12     6    26   ar
    13     7    20    1
    14     7    46    1
    15     8    23    1
    16     8    47    1
    17     9    24    2
    18    10    28    1
    19    10    51    1
    20    11    32    1
    21    11    52    1
    22    12    13    1
    23    12    14    1
    24    12    33    1
    25    13    15    1
    26    13    34    1
    27    14    17    1
    28    14    35    1
    29    15    16    1
    30    15    36    1
    31    16    18    1
    32    16    37    1
    33    17    19   ar
    34    17    20   ar
    35    18    38    1
    36    18    39    1
    37    19    21   ar
    38    20    22   ar
    39    21    23   ar
    40    21    24   ar
    41    22    23   ar
    42    22    43    1
    43    24    25   ar
    44    25    26   ar
    45    25    27    1
    46    26    45    1
    47    27    28   ar
    48    27    29   ar
    49    28    30   ar
    50    29    31   ar
    51    29    48    1
    52    30    32   ar
    53    30    49    1
    54    31    32   ar
    55    31    50    1
