@<TRIPOS>MOLECULE
IMPHY010232
 48 53 0 0 0
SMALL
GASTEIGER

@<TRIPOS>ATOM
      1 O           5.6458   -6.1340    0.0000 O.3     1  UNL1       -0.3318
      2 C           6.9852   -5.9212    0.0000 C.3     1  UNL1        0.1283
      3 C           8.1244   -5.2702    0.0000 C.3     1  UNL1        0.0214
      4 C           8.1244   -3.9683    0.0000 C.3     1  UNL1        0.0404
      5 C           6.9852   -3.3048    0.0000 C.3     1  UNL1        0.0034
      6 C           5.8586   -3.9683    0.0000 C.3     1  UNL1       -0.0013
      7 C           5.8586   -5.2452    0.0000 C.3     1  UNL1        0.0118
      8 C           4.5942   -5.5581    0.0000 C.3     1  UNL1        0.0521
      9 C           3.9182   -6.6723    0.0000 C.3     1  UNL1        0.0190
     10 C           4.2312   -7.9491    0.0000 C.3     1  UNL1        0.0404
     11 C           5.3453   -8.6251    0.0000 C.3     1  UNL1        0.2046
     12 C           6.6222   -8.3122    0.0000 C.3     1  UNL1        0.2502
     13 C           7.2982   -7.1855    0.0000 C.3     1  UNL1        0.2286
     14 C           5.0199   -7.2857    0.0000 C.3     1  UNL1        0.2511
     15 C           9.2511   -5.9212    0.0000 C.3     1  UNL1        0.1081
     16 C          10.3902   -5.2702    0.0000 C.2     1  UNL1        0.3169
     17 O          10.3902   -3.9683    0.0000 O.3     1  UNL1       -0.4476
     18 C           9.2511   -3.3048    0.0000 C.3     1  UNL1        0.1937
     19 C           8.1244   -2.6539    0.0000 C.3     1  UNL1        0.0037
     20 C           3.9057   -4.4190    0.0000 C.3     1  UNL1        0.0048
     21 C           2.6163   -6.6723    0.0000 C.3     1  UNL1        0.1098
     22 C           1.9654   -5.5331    0.0000 C.2     1  UNL1        0.3171
     23 O           2.6163   -4.4065    0.0000 O.2     1  UNL1       -0.2501
     24 C           2.9418   -8.0868    0.0000 C.3     1  UNL1        0.0037
     25 C           3.7054   -9.1384    0.0000 C.3     1  UNL1        0.0037
     26 O           5.3453   -9.9270    0.0000 O.3     1  UNL1       -0.4494
     27 C           4.2187  -10.5905    0.0000 C.2     1  UNL1        0.3175
     28 O           3.0920   -9.9270    0.0000 O.2     1  UNL1       -0.2501
     29 O           7.3858   -9.3637    0.0000 O.3     1  UNL1       -0.2129
     30 O           8.6001   -7.1980    0.0000 O.3     1  UNL1       -0.4469
     31 C           9.2511   -8.3372    0.0000 C.2     1  UNL1        0.3165
     32 O           8.6001   -9.4639    0.0000 O.2     1  UNL1       -0.2501
     33 O           3.5302   -7.2857    0.0000 O.3     1  UNL1       -0.1924
     34 O          11.5169   -5.9212    0.0000 O.2     1  UNL1       -0.2501
     35 C           9.2511   -2.0029    0.0000 C.ar    1  UNL1        0.0580
     36 C          10.3151   -1.2393    0.0000 C.ar    1  UNL1        0.1789
     37 O           9.9020    0.0000    0.0000 O.2     1  UNL1       -0.4475
     38 C           8.6001    0.0000    0.0000 C.ar    1  UNL1        0.1795
     39 C           8.1995   -1.2393    0.0000 C.ar    1  UNL1        0.0430
     40 O           0.6635   -5.5331    0.0000 O.3     1  UNL1       -0.4444
     41 C           0.0000   -4.4065    0.0000 C.3     1  UNL1        0.2556
     42 C           4.2187  -11.8924    0.0000 C.3     1  UNL1        0.1212
     43 C          10.5530   -8.3372    0.0000 C.3     1  UNL1        0.0991
     44 C          11.2164   -9.4639    0.0000 C.3     1  UNL1        0.0111
     45 C          12.5183   -9.4639    0.0000 C.3     1  UNL1        0.0006
     46 C          11.2164   -7.1980    0.0000 C.3     1  UNL1        0.0116
     47 H           9.2260   -4.6819    0.0000 H       1  UNL1        0.0348
     48 H           5.1075   -4.1561    0.0000 H       1  UNL1        0.0343
@<TRIPOS>BOND
     1     1    14    1
     2     2     1    1
     3     2     3    1
     4     2    13    1
     5     2     7    1
     6     3     4    1
     7     3    15    1
     8     3    47    1
     9     4     5    1
    10     4    18    1
    11     4    19    1
    12     5     6    1
    13     6     7    1
    14     7     8    1
    15     7    48    1
    16     8    14    1
    17     8    20    1
    18     8     9    1
    19     9    10    1
    20     9    21    1
    21    10    11    1
    22    10    24    1
    23    10    25    1
    24    11    12    1
    25    11    26    1
    26    12    13    1
    27    12    14    1
    28    12    29    1
    29    13    30    1
    30    14    33    1
    31    15    16    1
    32    16    17    1
    33    16    34    2
    34    17    18    1
    35    18    35    1
    36    21    22    1
    37    22    23    2
    38    22    40    1
    39    26    27    1
    40    27    28    2
    41    27    42    1
    42    30    31    1
    43    31    43    1
    44    31    32    2
    45    35    39   ar
    46    35    36   ar
    47    36    37   ar
    48    37    38   ar
    49    38    39   ar
    50    40    41    1
    51    43    46    1
    52    43    44    1
    53    44    45    1
