@<TRIPOS>MOLECULE
IMPHY011024
 28 29 0 0 0
SMALL
GASTEIGER

@<TRIPOS>ATOM
      1 O           5.2619   -0.6815    0.0000 O.3     1  UNL1       -0.4224
      2 O           4.9889   -2.4367    0.0000 O.2     1  UNL1       -0.2445
      3 C           3.7320   -0.1815    0.0000 C.2     1  UNL1        0.0089
      4 C           2.8660    0.3185    0.0000 C.3     1  UNL1       -0.0200
      5 C           3.7320   -1.1815    0.0000 C.2     1  UNL1        0.0658
      6 C           2.0000   -0.1815    0.0000 C.3     1  UNL1       -0.0303
      7 C           4.6783    0.1233    0.0000 C.2     1  UNL1        0.1320
      8 C           2.8660   -1.6815    0.0000 C.2     1  UNL1       -0.0513
      9 C           2.0000   -1.1815    0.0000 C.2     1  UNL1       -0.0829
     10 C           4.9889    1.0738    0.0000 C.2     1  UNL1       -0.0412
     11 C           5.9674    1.2800    0.0000 C.3     1  UNL1       -0.0313
     12 C           4.6783   -1.4862    0.0000 C.2     1  UNL1        0.3448
     13 C           6.2781    2.2305    0.0000 C.3     1  UNL1       -0.0523
     14 C           7.2566    2.4367    0.0000 C.3     1  UNL1       -0.0650
     15 H           3.2646    0.7935    0.0000 H       1  UNL1        0.0317
     16 H           2.4675    0.7935    0.0000 H       1  UNL1        0.0317
     17 H           1.7880    0.4011    0.0000 H       1  UNL1        0.0311
     18 H           1.3894   -0.2891    0.0000 H       1  UNL1        0.0311
     19 H           2.8660   -2.3015    0.0000 H       1  UNL1        0.0623
     20 H           1.4631   -1.4915    0.0000 H       1  UNL1        0.0572
     21 H           4.5749    1.5352    0.0000 H       1  UNL1        0.0608
     22 H           5.9880    0.6603    0.0000 H       1  UNL1        0.0308
     23 H           6.5812    1.1926    0.0000 H       1  UNL1        0.0308
     24 H           6.2575    2.8502    0.0000 H       1  UNL1        0.0266
     25 H           5.6643    2.3179    0.0000 H       1  UNL1        0.0266
     26 H           7.3845    1.8301    0.0000 H       1  UNL1        0.0230
     27 H           7.8633    2.5646    0.0000 H       1  UNL1        0.0230
     28 H           7.1288    3.0434    0.0000 H       1  UNL1        0.0230
@<TRIPOS>BOND
     1     1     7    1
     2     1    12    1
     3     2    12    2
     4     3     4    1
     5     3     5    2
     6     3     7    1
     7     4     6    1
     8     4    15    1
     9     4    16    1
    10     5     8    1
    11     5    12    1
    12     6     9    1
    13     6    17    1
    14     6    18    1
    15     7    10    2
    16     8     9    2
    17     8    19    1
    18     9    20    1
    19    10    11    1
    20    10    21    1
    21    11    13    1
    22    11    22    1
    23    11    23    1
    24    13    14    1
    25    13    24    1
    26    13    25    1
    27    14    26    1
    28    14    27    1
    29    14    28    1
