@<TRIPOS>MOLECULE
IMPHY013310
 75 79 0 0 0
SMALL
GASTEIGER

@<TRIPOS>ATOM
      1 O          10.2459    0.6761    0.0000 O.3     1  UNL1       -0.3915
      2 O           8.1335    4.3026    0.0000 O.3     1  UNL1       -0.3869
      3 O           6.0010   -1.5857    0.0000 O.3     1  UNL1       -0.4318
      4 O           5.1350   -0.0857    0.0000 O.2     1  UNL1       -0.2501
      5 O           4.2690   -1.5857    0.0000 O.3     1  UNL1       -0.3312
      6 O           6.0010   -3.5857    0.0000 O.3     1  UNL1       -0.3829
      7 O           4.2690   -4.5857    0.0000 O.3     1  UNL1       -0.3864
      8 O           2.5369   -3.5857    0.0000 O.3     1  UNL1       -0.3865
      9 O           2.5369   -0.5857    0.0000 O.3     1  UNL1       -0.3924
     10 C           8.4547    2.6399    0.0000 C.3     1  UNL1        0.0068
     11 C           8.9581    1.7758    0.0000 C.3     1  UNL1       -0.0010
     12 C           8.4547    0.8638    0.0000 C.3     1  UNL1       -0.0225
     13 C           7.4132    0.8518    0.0000 C.3     1  UNL1       -0.0198
     14 C           9.6363    2.6258    0.0000 C.3     1  UNL1       -0.0377
     15 C           7.4132    2.6519    0.0000 C.3     1  UNL1       -0.0440
     16 C           9.9475    1.6306    0.0000 C.3     1  UNL1        0.0597
     17 C          10.5993    3.3105    0.0000 C.3     1  UNL1       -0.0148
     18 C           8.8165    3.5722    0.0000 C.3     1  UNL1        0.0822
     19 C           6.8889    1.7519    0.0000 C.3     1  UNL1       -0.0481
     20 C           6.8671   -0.0857    0.0000 C.3     1  UNL1        0.0683
     21 C           9.0224   -0.0608    0.0000 C.3     1  UNL1       -0.0470
     22 C          10.6779    2.3136    0.0000 C.3     1  UNL1       -0.0199
     23 C           9.7709    3.8706    0.0000 C.2     1  UNL1       -0.0448
     24 C           9.3983    0.5327    0.0000 C.3     1  UNL1       -0.0589
     25 C           7.4132   -1.0233    0.0000 C.3     1  UNL1       -0.0372
     26 C           8.4981   -1.0107    0.0000 C.3     1  UNL1       -0.0515
     27 C           6.0010    0.4143    0.0000 C.3     1  UNL1       -0.0491
     28 C           6.0010   -0.5857    0.0000 C.2     1  UNL1        0.3156
     29 C           9.9162    4.8600    0.0000 C.2     1  UNL1       -0.0967
     30 C           5.1350   -2.0857    0.0000 C.3     1  UNL1        0.2337
     31 C           5.1350   -3.0857    0.0000 C.3     1  UNL1        0.1455
     32 C           4.2690   -3.5857    0.0000 C.3     1  UNL1        0.1152
     33 C           3.4030   -2.0857    0.0000 C.3     1  UNL1        0.1140
     34 C           3.4030   -3.0857    0.0000 C.3     1  UNL1        0.1120
     35 C           2.5369   -1.5857    0.0000 C.3     1  UNL1        0.0731
     36 H           9.3859    1.0413    0.0000 H       1  UNL1        0.0337
     37 H           6.5632    0.8518    0.0000 H       1  UNL1        0.0317
     38 H           9.4380    2.0384    0.0000 H       1  UNL1        0.0277
     39 H          10.1339    2.2560    0.0000 H       1  UNL1        0.0277
     40 H           7.5263    3.2615    0.0000 H       1  UNL1        0.0272
     41 H           6.8319    2.8677    0.0000 H       1  UNL1        0.0272
     42 H          10.5470    1.4724    0.0000 H       1  UNL1        0.0596
     43 H          11.4106    3.5641    0.0000 H       1  UNL1        0.0347
     44 H           8.2078    3.4545    0.0000 H       1  UNL1        0.0646
     45 H           6.4145    2.1510    0.0000 H       1  UNL1        0.0269
     46 H           6.4145    1.3527    0.0000 H       1  UNL1        0.0269
     47 H           9.5059   -0.4489    0.0000 H       1  UNL1        0.0271
     48 H           9.4875    0.3492    0.0000 H       1  UNL1        0.0271
     49 H          10.9900    1.7778    0.0000 H       1  UNL1        0.0296
     50 H          11.2696    2.4986    0.0000 H       1  UNL1        0.0296
     51 H           9.1930   -0.0523    0.0000 H       1  UNL1        0.0235
     52 H           9.9834    0.3274    0.0000 H       1  UNL1        0.0235
     53 H           9.6036    1.1177    0.0000 H       1  UNL1        0.0235
     54 H           6.8319   -1.2391    0.0000 H       1  UNL1        0.0276
     55 H           7.5263   -1.6329    0.0000 H       1  UNL1        0.0276
     56 H           8.3991   -1.6228    0.0000 H       1  UNL1        0.0266
     57 H           9.0842   -1.2130    0.0000 H       1  UNL1        0.0266
     58 H           6.3110    0.9512    0.0000 H       1  UNL1        0.0240
     59 H           5.4641    0.7243    0.0000 H       1  UNL1        0.0240
     60 H           5.6910   -0.1227    0.0000 H       1  UNL1        0.0240
     61 H          10.8509    0.5405    0.0000 H       1  UNL1        0.2098
     62 H           8.3140    4.8957    0.0000 H       1  UNL1        0.2102
     63 H          10.4924    5.0887    0.0000 H       1  UNL1        0.0535
     64 H           9.4299    5.2447    0.0000 H       1  UNL1        0.0535
     65 H           5.1350   -1.4657    0.0000 H       1  UNL1        0.1085
     66 H           5.1350   -3.7057    0.0000 H       1  UNL1        0.0683
     67 H           3.7320   -3.8957    0.0000 H       1  UNL1        0.0648
     68 H           3.4030   -1.4657    0.0000 H       1  UNL1        0.0647
     69 H           3.4030   -3.7057    0.0000 H       1  UNL1        0.0647
     70 H           6.5380   -3.2757    0.0000 H       1  UNL1        0.2102
     71 H           1.9264   -1.4781    0.0000 H       1  UNL1        0.0584
     72 H           2.3249   -2.1684    0.0000 H       1  UNL1        0.0584
     73 H           3.7320   -4.8957    0.0000 H       1  UNL1        0.2100
     74 H           2.0000   -3.2757    0.0000 H       1  UNL1        0.2100
     75 H           2.0000   -0.2757    0.0000 H       1  UNL1        0.2095
@<TRIPOS>BOND
     1    16     1    1
     2     1    61    1
     3    18     2    1
     4     2    62    1
     5     3    28    1
     6    30     3    1
     7     4    28    2
     8     5    30    1
     9     5    33    1
    10    31     6    1
    11     6    70    1
    12    32     7    1
    13     7    73    1
    14    34     8    1
    15     8    74    1
    16     9    35    1
    17     9    75    1
    18    10    11    1
    19    10    14    1
    20    10    15    1
    21    10    18    1
    22    11    12    1
    23    11    16    1
    24    11    36    1
    25    12    13    1
    26    12    21    1
    27    12    24    1
    28    13    19    1
    29    13    20    1
    30    13    37    1
    31    14    17    1
    32    14    38    1
    33    14    39    1
    34    15    19    1
    35    15    40    1
    36    15    41    1
    37    16    22    1
    38    16    42    1
    39    17    22    1
    40    17    23    1
    41    17    43    1
    42    18    23    1
    43    18    44    1
    44    19    45    1
    45    19    46    1
    46    20    25    1
    47    20    27    1
    48    20    28    1
    49    21    26    1
    50    21    47    1
    51    21    48    1
    52    22    49    1
    53    22    50    1
    54    23    29    2
    55    24    51    1
    56    24    52    1
    57    24    53    1
    58    25    26    1
    59    25    54    1
    60    25    55    1
    61    26    56    1
    62    26    57    1
    63    27    58    1
    64    27    59    1
    65    27    60    1
    66    29    63    1
    67    29    64    1
    68    30    31    1
    69    30    65    1
    70    31    32    1
    71    31    66    1
    72    32    34    1
    73    32    67    1
    74    33    34    1
    75    33    35    1
    76    33    68    1
    77    34    69    1
    78    35    71    1
    79    35    72    1
