@<TRIPOS>MOLECULE
IMPHY012658
 51 50 0 0 0
SMALL
GASTEIGER

@<TRIPOS>ATOM
      1 O           2.8660   -1.5000    0.0000 O.3     1  UNL1       -0.4679
      2 O           3.7320   -3.0000    0.0000 O.2     1  UNL1       -0.2509
      3 C           7.1962   -2.0000    0.0000 C.3     1  UNL1       -0.0530
      4 C           8.0622   -1.5000    0.0000 C.3     1  UNL1       -0.0528
      5 C           6.3301   -1.5000    0.0000 C.3     1  UNL1       -0.0526
      6 C           8.9282   -2.0000    0.0000 C.3     1  UNL1       -0.0496
      7 C           5.4641   -2.0000    0.0000 C.3     1  UNL1       -0.0430
      8 C           9.7942   -1.5000    0.0000 C.3     1  UNL1       -0.0348
      9 C          12.3923    1.0000    0.0000 C.3     1  UNL1       -0.0528
     10 C          12.3923   -0.0000    0.0000 C.3     1  UNL1       -0.0496
     11 C          13.2583    1.5000    0.0000 C.3     1  UNL1       -0.0533
     12 C          11.5263   -0.5000    0.0000 C.3     1  UNL1       -0.0348
     13 C          10.6603   -2.0000    0.0000 C.2     1  UNL1       -0.0879
     14 C           4.5981   -1.5000    0.0000 C.3     1  UNL1        0.0449
     15 C          11.5263   -1.5000    0.0000 C.2     1  UNL1       -0.0879
     16 C          13.2583    2.5000    0.0000 C.3     1  UNL1       -0.0559
     17 C          14.1244    3.0000    0.0000 C.3     1  UNL1       -0.0653
     18 C           3.7320   -2.0000    0.0000 C.2     1  UNL1        0.3068
     19 C           2.0000   -2.0000    0.0000 C.3     1  UNL1        0.0817
     20 H           6.7976   -2.4750    0.0000 H       1  UNL1        0.0265
     21 H           7.5947   -2.4750    0.0000 H       1  UNL1        0.0265
     22 H           8.4607   -1.0250    0.0000 H       1  UNL1        0.0265
     23 H           7.6636   -1.0250    0.0000 H       1  UNL1        0.0265
     24 H           6.7287   -1.0250    0.0000 H       1  UNL1        0.0265
     25 H           5.9316   -1.0250    0.0000 H       1  UNL1        0.0265
     26 H           8.5297   -2.4750    0.0000 H       1  UNL1        0.0268
     27 H           9.3267   -2.4750    0.0000 H       1  UNL1        0.0268
     28 H           5.0656   -2.4750    0.0000 H       1  UNL1        0.0270
     29 H           5.8626   -2.4750    0.0000 H       1  UNL1        0.0270
     30 H          10.1928   -1.0250    0.0000 H       1  UNL1        0.0307
     31 H           9.3957   -1.0250    0.0000 H       1  UNL1        0.0307
     32 H          12.1803    1.5826    0.0000 H       1  UNL1        0.0265
     33 H          11.7817    0.8923    0.0000 H       1  UNL1        0.0265
     34 H          12.6044   -0.5826    0.0000 H       1  UNL1        0.0268
     35 H          13.0029    0.1077    0.0000 H       1  UNL1        0.0268
     36 H          13.4704    0.9174    0.0000 H       1  UNL1        0.0265
     37 H          13.8689    1.6077    0.0000 H       1  UNL1        0.0265
     38 H          11.3142    0.0826    0.0000 H       1  UNL1        0.0307
     39 H          10.9157   -0.6077    0.0000 H       1  UNL1        0.0307
     40 H          10.6603   -2.6200    0.0000 H       1  UNL1        0.0569
     41 H           4.9966   -1.0250    0.0000 H       1  UNL1        0.0377
     42 H           4.1996   -1.0250    0.0000 H       1  UNL1        0.0377
     43 H          12.0632   -1.8100    0.0000 H       1  UNL1        0.0569
     44 H          13.0463    3.0826    0.0000 H       1  UNL1        0.0263
     45 H          12.6477    2.3923    0.0000 H       1  UNL1        0.0263
     46 H          14.4344    2.4631    0.0000 H       1  UNL1        0.0230
     47 H          14.6613    3.3100    0.0000 H       1  UNL1        0.0230
     48 H          13.8144    3.5369    0.0000 H       1  UNL1        0.0230
     49 H           1.6900   -1.4631    0.0000 H       1  UNL1        0.0661
     50 H           1.4631   -2.3100    0.0000 H       1  UNL1        0.0661
     51 H           2.3100   -2.5369    0.0000 H       1  UNL1        0.0661
@<TRIPOS>BOND
     1     1    18    1
     2     1    19    1
     3     2    18    2
     4     3     4    1
     5     3     5    1
     6     3    20    1
     7     3    21    1
     8     4     6    1
     9     4    22    1
    10     4    23    1
    11     5     7    1
    12     5    24    1
    13     5    25    1
    14     6     8    1
    15     6    26    1
    16     6    27    1
    17     7    14    1
    18     7    28    1
    19     7    29    1
    20     8    13    1
    21     8    30    1
    22     8    31    1
    23     9    10    1
    24     9    11    1
    25     9    32    1
    26     9    33    1
    27    10    12    1
    28    10    34    1
    29    10    35    1
    30    11    16    1
    31    11    36    1
    32    11    37    1
    33    12    15    1
    34    12    38    1
    35    12    39    1
    36    13    15    2
    37    13    40    1
    38    14    18    1
    39    14    41    1
    40    14    42    1
    41    15    43    1
    42    16    17    1
    43    16    44    1
    44    16    45    1
    45    17    46    1
    46    17    47    1
    47    17    48    1
    48    19    49    1
    49    19    50    1
    50    19    51    1
