@<TRIPOS>MOLECULE
IMPHY016603
 37 39 0 0 0
SMALL
GASTEIGER

@<TRIPOS>ATOM
      1 C           4.5772   -0.5146    0.0000 C.3     1  UNL1        0.0185
      2 C           4.6841    0.6621    0.0000 C.3     1  UNL1       -0.0187
      3 C           4.0772    1.6760    0.0000 C.3     1  UNL1       -0.0311
      4 C           5.4782   -0.0807    0.0000 C.3     1  UNL1       -0.0305
      5 C           3.6763   -0.0807    0.0000 C.2     1  UNL1       -0.0557
      6 C           3.4538    0.8942    0.0000 C.3     1  UNL1       -0.0270
      7 C           5.0772    1.6760    0.0000 C.3     1  UNL1       -0.0491
      8 C           5.7007    0.8942    0.0000 C.3     1  UNL1       -0.0491
      9 C           4.4413   -1.4994    0.0000 C.2     1  UNL1       -0.0728
     10 C           5.5796    1.3836    0.0000 C.3     1  UNL1       -0.0585
     11 C           5.8040    0.4007    0.0000 C.3     1  UNL1       -0.0585
     12 C           2.9912   -0.8010    0.0000 C.2     1  UNL1       -0.0506
     13 C           6.2600   -0.7042    0.0000 C.3     1  UNL1       -0.0613
     14 C           3.4630   -1.6760    0.0000 C.2     1  UNL1       -0.0619
     15 C           2.0000   -0.6685    0.0000 C.3     1  UNL1       -0.0397
     16 H           3.8082    2.2346    0.0000 H       1  UNL1        0.0309
     17 H           5.4088   -0.6968    0.0000 H       1  UNL1        0.0310
     18 H           3.0672    1.3789    0.0000 H       1  UNL1        0.0313
     19 H           2.8952    0.6252    0.0000 H       1  UNL1        0.0313
     20 H           5.6358    1.9450    0.0000 H       1  UNL1        0.0268
     21 H           4.9393    2.2805    0.0000 H       1  UNL1        0.0268
     22 H           6.2593    0.6252    0.0000 H       1  UNL1        0.0268
     23 H           6.0873    1.3789    0.0000 H       1  UNL1        0.0268
     24 H           4.8886   -1.9286    0.0000 H       1  UNL1        0.0581
     25 H           5.9686    0.9008    0.0000 H       1  UNL1        0.0235
     26 H           6.0624    1.7726    0.0000 H       1  UNL1        0.0235
     27 H           5.1906    1.8664    0.0000 H       1  UNL1        0.0235
     28 H           5.6630   -0.2031    0.0000 H       1  UNL1        0.0235
     29 H           6.4077    0.2597    0.0000 H       1  UNL1        0.0235
     30 H           5.9450    1.0044    0.0000 H       1  UNL1        0.0235
     31 H           5.8735   -1.1890    0.0000 H       1  UNL1        0.0233
     32 H           6.7448   -1.0908    0.0000 H       1  UNL1        0.0233
     33 H           6.6466   -0.2195    0.0000 H       1  UNL1        0.0233
     34 H           3.1940   -2.2346    0.0000 H       1  UNL1        0.0617
     35 H           2.0822   -0.0540    0.0000 H       1  UNL1        0.0278
     36 H           1.3855   -0.5864    0.0000 H       1  UNL1        0.0278
     37 H           1.9178   -1.2830    0.0000 H       1  UNL1        0.0278
@<TRIPOS>BOND
     1     1     2    1
     2     1     4    1
     3     1     5    1
     4     1     9    1
     5     2     3    1
     6     2    10    1
     7     2    11    1
     8     3     6    1
     9     3     7    1
    10     3    16    1
    11     4     8    1
    12     4    13    1
    13     4    17    1
    14     5     6    1
    15     5    12    2
    16     6    18    1
    17     6    19    1
    18     7     8    1
    19     7    20    1
    20     7    21    1
    21     8    22    1
    22     8    23    1
    23     9    14    2
    24     9    24    1
    25    10    25    1
    26    10    26    1
    27    10    27    1
    28    11    28    1
    29    11    29    1
    30    11    30    1
    31    12    14    1
    32    12    15    1
    33    13    31    1
    34    13    32    1
    35    13    33    1
    36    14    34    1
    37    15    35    1
    38    15    36    1
    39    15    37    1
