@<TRIPOS>MOLECULE
IMPHY013093
 39 39 0 0 0
SMALL
GASTEIGER

@<TRIPOS>ATOM
      1 C           4.5981    1.2500    0.0000 C.3     1  UNL1       -0.0041
      2 C           3.7320    0.7500    0.0000 C.3     1  UNL1        0.0067
      3 C           5.4641    0.7500    0.0000 C.3     1  UNL1       -0.0397
      4 C           5.4641   -0.2500    0.0000 C.3     1  UNL1       -0.0307
      5 C           4.5981   -0.7500    0.0000 C.2     1  UNL1       -0.0703
      6 C           3.7320   -0.2500    0.0000 C.2     1  UNL1       -0.0766
      7 C           4.0981    2.1160    0.0000 C.3     1  UNL1       -0.0553
      8 C           4.5981   -1.7500    0.0000 C.3     1  UNL1       -0.0255
      9 C           5.0981    2.1160    0.0000 C.2     1  UNL1       -0.0843
     10 C           2.8660    1.2500    0.0000 C.2     1  UNL1       -0.0721
     11 C           5.4641   -2.2500    0.0000 C.3     1  UNL1       -0.0590
     12 C           3.7320   -2.2500    0.0000 C.3     1  UNL1       -0.0590
     13 C           2.0000    0.7500    0.0000 C.3     1  UNL1       -0.0435
     14 C           6.0981    2.1160    0.0000 C.2     1  UNL1       -0.1021
     15 C           2.8660    2.2500    0.0000 C.2     1  UNL1       -0.0991
     16 H           3.7320    1.3700    0.0000 H       1  UNL1        0.0396
     17 H           6.0747    0.6423    0.0000 H       1  UNL1        0.0277
     18 H           5.6762    1.3326    0.0000 H       1  UNL1        0.0277
     19 H           5.6762   -0.8326    0.0000 H       1  UNL1        0.0310
     20 H           6.0747   -0.1423    0.0000 H       1  UNL1        0.0310
     21 H           3.1951   -0.5600    0.0000 H       1  UNL1        0.0578
     22 H           4.6350    2.4260    0.0000 H       1  UNL1        0.0238
     23 H           3.7881    2.6530    0.0000 H       1  UNL1        0.0238
     24 H           3.5611    1.8060    0.0000 H       1  UNL1        0.0238
     25 H           4.5981   -2.3700    0.0000 H       1  UNL1        0.0340
     26 H           4.7881    2.6530    0.0000 H       1  UNL1        0.0572
     27 H           5.1541   -2.7869    0.0000 H       1  UNL1        0.0235
     28 H           6.0010   -2.5600    0.0000 H       1  UNL1        0.0235
     29 H           5.7741   -1.7131    0.0000 H       1  UNL1        0.0235
     30 H           3.4220   -1.7131    0.0000 H       1  UNL1        0.0235
     31 H           3.1951   -2.5600    0.0000 H       1  UNL1        0.0235
     32 H           4.0420   -2.7869    0.0000 H       1  UNL1        0.0235
     33 H           1.6900    1.2869    0.0000 H       1  UNL1        0.0274
     34 H           1.4631    0.4400    0.0000 H       1  UNL1        0.0274
     35 H           2.3100    0.2131    0.0000 H       1  UNL1        0.0274
     36 H           6.4081    1.5791    0.0000 H       1  UNL1        0.0532
     37 H           6.4081    2.6530    0.0000 H       1  UNL1        0.0532
     38 H           3.4030    2.5600    0.0000 H       1  UNL1        0.0534
     39 H           2.3291    2.5600    0.0000 H       1  UNL1        0.0534
@<TRIPOS>BOND
     1     1     2    1
     2     1     3    1
     3     1     7    1
     4     1     9    1
     5     2     6    1
     6     2    10    1
     7     2    16    1
     8     3     4    1
     9     3    17    1
    10     3    18    1
    11     4     5    1
    12     4    19    1
    13     4    20    1
    14     5     6    2
    15     5     8    1
    16     6    21    1
    17     7    22    1
    18     7    23    1
    19     7    24    1
    20     8    11    1
    21     8    12    1
    22     8    25    1
    23     9    14    2
    24     9    26    1
    25    10    13    1
    26    10    15    2
    27    11    27    1
    28    11    28    1
    29    11    29    1
    30    12    30    1
    31    12    31    1
    32    12    32    1
    33    13    33    1
    34    13    34    1
    35    13    35    1
    36    14    36    1
    37    14    37    1
    38    15    38    1
    39    15    39    1
