@<TRIPOS>MOLECULE
IMPHY012157
 25 25 0 0 0
SMALL
GASTEIGER

@<TRIPOS>ATOM
      1 O           2.0000   -2.5000    0.0000 O.2     1  UNL1       -0.2960
      2 C           2.8660    1.0000    0.0000 C.3     1  UNL1       -0.0167
      3 C           2.0000    0.5000    0.0000 C.3     1  UNL1       -0.0422
      4 C           3.7320    0.5000    0.0000 C.3     1  UNL1       -0.0276
      5 C           2.0000   -0.5000    0.0000 C.3     1  UNL1       -0.0244
      6 C           2.8660    2.0000    0.0000 C.2     1  UNL1       -0.0763
      7 C           2.8660   -1.0000    0.0000 C.2     1  UNL1       -0.0121
      8 C           3.7320   -0.5000    0.0000 C.2     1  UNL1       -0.0772
      9 C           3.7320    2.5000    0.0000 C.3     1  UNL1       -0.0438
     10 C           2.0000    2.5000    0.0000 C.2     1  UNL1       -0.0994
     11 C           2.8660   -2.0000    0.0000 C.2     1  UNL1        0.1460
     12 H           3.4030    1.3100    0.0000 H       1  UNL1        0.0348
     13 H           1.7880    1.0826    0.0000 H       1  UNL1        0.0274
     14 H           1.3894    0.3923    0.0000 H       1  UNL1        0.0274
     15 H           4.3426    0.3923    0.0000 H       1  UNL1        0.0313
     16 H           3.9441    1.0826    0.0000 H       1  UNL1        0.0313
     17 H           1.3894   -0.3923    0.0000 H       1  UNL1        0.0314
     18 H           1.7880   -1.0826    0.0000 H       1  UNL1        0.0314
     19 H           4.2690   -0.8100    0.0000 H       1  UNL1        0.0576
     20 H           4.0420    1.9631    0.0000 H       1  UNL1        0.0274
     21 H           4.2690    2.8100    0.0000 H       1  UNL1        0.0274
     22 H           3.4220    3.0369    0.0000 H       1  UNL1        0.0274
     23 H           2.0000    3.1200    0.0000 H       1  UNL1        0.0534
     24 H           1.4631    2.1900    0.0000 H       1  UNL1        0.0534
     25 H           3.4030   -2.3100    0.0000 H       1  UNL1        0.1078
@<TRIPOS>BOND
     1     1    11    2
     2     2     3    1
     3     2     4    1
     4     2     6    1
     5     2    12    1
     6     3     5    1
     7     3    13    1
     8     3    14    1
     9     4     8    1
    10     4    15    1
    11     4    16    1
    12     5     7    1
    13     5    17    1
    14     5    18    1
    15     6     9    1
    16     6    10    2
    17     7     8    2
    18     7    11    1
    19     8    19    1
    20     9    20    1
    21     9    21    1
    22     9    22    1
    23    10    23    1
    24    10    24    1
    25    11    25    1
