@<TRIPOS>MOLECULE
IMPHY017173
 23 23 0 0 0
SMALL
GASTEIGER

@<TRIPOS>ATOM
      1 O           3.7320    1.5000    0.0000 O.2     1  UNL1       -0.2968
      2 C           2.8660    0.0000    0.0000 C.3     1  UNL1        0.0150
      3 C           4.5981   -0.0000    0.0000 C.3     1  UNL1        0.0150
      4 C           2.8660   -1.0000    0.0000 C.3     1  UNL1       -0.0437
      5 C           4.5981   -1.0000    0.0000 C.3     1  UNL1       -0.0437
      6 C           3.7320   -1.5000    0.0000 C.3     1  UNL1       -0.0518
      7 C           3.7320    0.5000    0.0000 C.2     1  UNL1        0.1389
      8 C           2.0000    0.5000    0.0000 C.3     1  UNL1       -0.0557
      9 C           5.4641    0.5000    0.0000 C.3     1  UNL1       -0.0557
     10 H           2.8660    0.6200    0.0000 H       1  UNL1        0.0375
     11 H           4.5981    0.6200    0.0000 H       1  UNL1        0.0375
     12 H           2.2554   -0.8923    0.0000 H       1  UNL1        0.0272
     13 H           2.6540   -1.5826    0.0000 H       1  UNL1        0.0272
     14 H           4.8101   -1.5826    0.0000 H       1  UNL1        0.0272
     15 H           5.2087   -0.8923    0.0000 H       1  UNL1        0.0272
     16 H           3.3335   -1.9750    0.0000 H       1  UNL1        0.0266
     17 H           4.1306   -1.9750    0.0000 H       1  UNL1        0.0266
     18 H           2.3100    1.0369    0.0000 H       1  UNL1        0.0236
     19 H           1.4631    0.8100    0.0000 H       1  UNL1        0.0236
     20 H           1.6900   -0.0369    0.0000 H       1  UNL1        0.0236
     21 H           5.7741   -0.0369    0.0000 H       1  UNL1        0.0236
     22 H           6.0010    0.8100    0.0000 H       1  UNL1        0.0236
     23 H           5.1541    1.0369    0.0000 H       1  UNL1        0.0236
@<TRIPOS>BOND
     1     1     7    2
     2     2     4    1
     3     2     7    1
     4     2     8    1
     5     2    10    1
     6     3     5    1
     7     3     7    1
     8     3     9    1
     9     3    11    1
    10     4     6    1
    11     4    12    1
    12     4    13    1
    13     5     6    1
    14     5    14    1
    15     5    15    1
    16     6    16    1
    17     6    17    1
    18     8    18    1
    19     8    19    1
    20     8    20    1
    21     9    21    1
    22     9    22    1
    23     9    23    1
