@<TRIPOS>MOLECULE
IMPHY017651
 26 26 0 0 0
SMALL
GASTEIGER

@<TRIPOS>ATOM
      1 C           4.6577   -0.9010    0.0000 C.3     1  UNL1       -0.0281
      2 C           3.6828   -1.1235    0.0000 C.3     1  UNL1       -0.0283
      3 C           4.6577    0.9010    0.0000 C.3     1  UNL1       -0.0283
      4 C           5.0916   -0.0000    0.0000 C.2     1  UNL1       -0.0731
      5 C           3.6828    1.1235    0.0000 C.3     1  UNL1       -0.0308
      6 C           2.9010   -0.5000    0.0000 C.2     1  UNL1       -0.0762
      7 C           2.9010    0.5000    0.0000 C.2     1  UNL1       -0.0847
      8 C           6.0916   -0.0000    0.0000 C.2     1  UNL1       -0.0878
      9 C           2.0000   -0.9339    0.0000 C.3     1  UNL1       -0.0438
     10 C           6.5916   -0.8660    0.0000 C.3     1  UNL1       -0.0466
     11 H           4.6577   -1.5210    0.0000 H       1  UNL1        0.0313
     12 H           5.2622   -1.0389    0.0000 H       1  UNL1        0.0313
     13 H           3.1981   -1.5100    0.0000 H       1  UNL1        0.0313
     14 H           3.9518   -1.6821    0.0000 H       1  UNL1        0.0313
     15 H           5.2622    1.0389    0.0000 H       1  UNL1        0.0313
     16 H           4.6577    1.5210    0.0000 H       1  UNL1        0.0313
     17 H           3.9518    1.6821    0.0000 H       1  UNL1        0.0310
     18 H           3.1981    1.5100    0.0000 H       1  UNL1        0.0310
     19 H           2.3424    0.7690    0.0000 H       1  UNL1        0.0572
     20 H           6.4016    0.5369    0.0000 H       1  UNL1        0.0569
     21 H           1.7310   -0.3753    0.0000 H       1  UNL1        0.0274
     22 H           1.4414   -1.2029    0.0000 H       1  UNL1        0.0274
     23 H           2.2690   -1.4925    0.0000 H       1  UNL1        0.0274
     24 H           6.0547   -1.1760    0.0000 H       1  UNL1        0.0272
     25 H           6.9016   -1.4030    0.0000 H       1  UNL1        0.0272
     26 H           7.1286   -0.5560    0.0000 H       1  UNL1        0.0272
@<TRIPOS>BOND
     1     1     2    1
     2     1     4    1
     3     1    11    1
     4     1    12    1
     5     2     6    1
     6     2    13    1
     7     2    14    1
     8     3     4    1
     9     3     5    1
    10     3    15    1
    11     3    16    1
    12     4     8    2
    13     5     7    1
    14     5    17    1
    15     5    18    1
    16     6     7    2
    17     6     9    1
    18     7    19    1
    19     8    10    1
    20     8    20    1
    21     9    21    1
    22     9    22    1
    23     9    23    1
    24    10    24    1
    25    10    25    1
    26    10    26    1
