@<TRIPOS>MOLECULE
IMPHY009995
 52 55 0 0 0
SMALL
GASTEIGER

@<TRIPOS>ATOM
      1 C           3.8778    0.1153    0.0000 C.3     1  UNL1       -0.0251
      2 C           4.7853    0.6266    0.0000 C.3     1  UNL1       -0.0262
      3 C           5.6538    0.1310    0.0000 C.3     1  UNL1       -0.0071
      4 C           3.8750   -0.9264    0.0000 C.3     1  UNL1       -0.0302
      5 C           5.6751   -0.9104    0.0000 C.3     1  UNL1       -0.0433
      6 C           2.9423   -1.4807    0.0000 C.3     1  UNL1       -0.0315
      7 C           5.6293    1.3123    0.0000 C.3     1  UNL1       -0.0371
      8 C           4.7797   -1.4427    0.0000 C.3     1  UNL1       -0.0484
      9 C           4.6313    1.6147    0.0000 C.3     1  UNL1       -0.0484
     10 C           6.3054    2.2814    0.0000 C.3     1  UNL1       -0.0193
     11 C           2.9482    0.6747    0.0000 C.3     1  UNL1       -0.0471
     12 C           5.3078    2.3512    0.0000 C.3     1  UNL1       -0.0462
     13 C           6.5828    0.5009    0.0000 C.2     1  UNL1       -0.0783
     14 C           2.0000   -0.9429    0.0000 C.3     1  UNL1       -0.0476
     15 C           3.8806    1.1153    0.0000 C.3     1  UNL1       -0.0590
     16 C           2.0029    0.1421    0.0000 C.3     1  UNL1       -0.0521
     17 C           6.8728    1.4580    0.0000 C.2     1  UNL1       -0.0729
     18 C           2.4500   -2.3512    0.0000 C.3     1  UNL1       -0.0595
     19 C           3.4500   -2.3423    0.0000 C.3     1  UNL1       -0.0595
     20 C           7.8609    1.6120    0.0000 C.3     1  UNL1       -0.0435
     21 H           5.2958    0.9785    0.0000 H       1  UNL1        0.0314
     22 H           3.8805   -1.5463    0.0000 H       1  UNL1        0.0311
     23 H           5.8960   -1.4897    0.0000 H       1  UNL1        0.0274
     24 H           6.2836   -0.7919    0.0000 H       1  UNL1        0.0274
     25 H           5.2551    1.8066    0.0000 H       1  UNL1        0.0279
     26 H           5.0436    1.1089    0.0000 H       1  UNL1        0.0279
     27 H           4.3847   -1.9206    0.0000 H       1  UNL1        0.0269
     28 H           5.1830   -1.9136    0.0000 H       1  UNL1        0.0269
     29 H           4.2795    2.1252    0.0000 H       1  UNL1        0.0269
     30 H           4.0553    1.3853    0.0000 H       1  UNL1        0.0269
     31 H           6.6127    2.8199    0.0000 H       1  UNL1        0.0346
     32 H           3.3541    1.1434    0.0000 H       1  UNL1        0.0271
     33 H           2.5559    1.1548    0.0000 H       1  UNL1        0.0271
     34 H           5.4876    2.9445    0.0000 H       1  UNL1        0.0271
     35 H           4.7694    2.6585    0.0000 H       1  UNL1        0.0271
     36 H           7.0394    0.0815    0.0000 H       1  UNL1        0.0577
     37 H           1.3894   -0.8352    0.0000 H       1  UNL1        0.0271
     38 H           1.7894   -1.5261    0.0000 H       1  UNL1        0.0271
     39 H           4.5005    1.1136    0.0000 H       1  UNL1        0.0235
     40 H           3.8822    1.7353    0.0000 H       1  UNL1        0.0235
     41 H           3.2606    1.1170    0.0000 H       1  UNL1        0.0235
     42 H           1.7955    0.7263    0.0000 H       1  UNL1        0.0266
     43 H           1.3918    0.0376    0.0000 H       1  UNL1        0.0266
     44 H           1.9104   -2.0459    0.0000 H       1  UNL1        0.0235
     45 H           2.1448   -2.8908    0.0000 H       1  UNL1        0.0235
     46 H           2.9897   -2.6564    0.0000 H       1  UNL1        0.0235
     47 H           2.9158   -2.6570    0.0000 H       1  UNL1        0.0235
     48 H           3.7647   -2.8765    0.0000 H       1  UNL1        0.0235
     49 H           3.9841   -2.0276    0.0000 H       1  UNL1        0.0235
     50 H           7.9564    0.9993    0.0000 H       1  UNL1        0.0274
     51 H           8.4735    1.7074    0.0000 H       1  UNL1        0.0274
     52 H           7.7654    2.2246    0.0000 H       1  UNL1        0.0274
@<TRIPOS>BOND
     1     1     2    1
     2     1     4    1
     3     1    11    1
     4     1    15    1
     5     2     3    1
     6     2     9    1
     7     2    21    1
     8     3     5    1
     9     3     7    1
    10     3    13    1
    11     4     6    1
    12     4     8    1
    13     4    22    1
    14     5     8    1
    15     5    23    1
    16     5    24    1
    17     6    14    1
    18     6    18    1
    19     6    19    1
    20     7    10    1
    21     7    25    1
    22     7    26    1
    23     8    27    1
    24     8    28    1
    25     9    12    1
    26     9    29    1
    27     9    30    1
    28    10    12    1
    29    10    17    1
    30    10    31    1
    31    11    16    1
    32    11    32    1
    33    11    33    1
    34    12    34    1
    35    12    35    1
    36    13    17    2
    37    13    36    1
    38    14    16    1
    39    14    37    1
    40    14    38    1
    41    15    39    1
    42    15    40    1
    43    15    41    1
    44    16    42    1
    45    16    43    1
    46    17    20    1
    47    18    44    1
    48    18    45    1
    49    18    46    1
    50    19    47    1
    51    19    48    1
    52    19    49    1
    53    20    50    1
    54    20    51    1
    55    20    52    1
