@<TRIPOS>MOLECULE
IMPHY002011
 57 62 0 0 0
SMALL
GASTEIGER

@<TRIPOS>ATOM
      1 O           2.6660    0.0842    0.0000 O.3     1  UNL1       -0.3420
      2 O           2.5369    1.2512    0.0000 O.3     1  UNL1       -0.3584
      3 O           2.5369    2.2512    0.0000 O.2     1  UNL1       -0.2910
      4 O           6.8408    0.4505    0.0000 O.3     1  UNL1       -0.4805
      5 O           5.4823    2.7209    0.0000 O.3     1  UNL1       -0.3799
      6 O           4.7791   -2.7506    0.0000 O.3     1  UNL1       -0.4915
      7 O           7.3617    3.4049    0.0000 O.2     1  UNL1       -0.2889
      8 O           6.7741   -2.8910    0.0000 O.3     1  UNL1       -0.5033
      9 O           9.0895    3.1354    0.0000 O.3     1  UNL1       -0.5058
     10 O          10.3131   -0.1863    0.0000 O.3     1  UNL1       -0.5065
     11 C           4.0598   -0.7206    0.0000 C.3     1  UNL1        0.0023
     12 C           4.2690    0.2512    0.0000 C.3     1  UNL1        0.0505
     13 C           5.0223    0.7049    0.0000 C.3     1  UNL1        0.0031
     14 C           3.4030    0.7512    0.0000 C.3     1  UNL1        0.2354
     15 C           4.2690    2.2512    0.0000 C.3     1  UNL1        0.0485
     16 C           5.1350    0.7512    0.0000 C.2     1  UNL1       -0.0210
     17 C           3.0711   -0.8236    0.0000 C.3     1  UNL1        0.0555
     18 C           3.4030    1.7512    0.0000 C.2     1  UNL1        0.1997
     19 C           5.1350    1.7512    0.0000 C.2     1  UNL1       -0.0698
     20 C           6.0747    1.0933    0.0000 C.3     1  UNL1        0.1547
     21 C           5.4602   -0.1941    0.0000 C.ar    1  UNL1       -0.0393
     22 C           6.2484    2.0781    0.0000 C.3     1  UNL1        0.1582
     23 C           4.9007   -1.0228    0.0000 C.ar    1  UNL1       -0.0128
     24 C           6.4578   -0.2643    0.0000 C.ar    1  UNL1       -0.0546
     25 C           7.1880    2.4201    0.0000 C.2     1  UNL1        0.2023
     26 C           7.7804    0.7925    0.0000 C.ar    1  UNL1        0.1391
     27 C           5.3387   -1.9218    0.0000 C.ar    1  UNL1        0.1615
     28 C           6.8957   -1.1633    0.0000 C.ar    1  UNL1       -0.0163
     29 C           7.9541    1.7773    0.0000 C.ar    1  UNL1        0.1033
     30 C           6.3361   -1.9921    0.0000 C.ar    1  UNL1        0.1585
     31 C           8.5680    0.1107    0.0000 C.ar    1  UNL1        0.0225
     32 C           8.9273    2.1486    0.0000 C.ar    1  UNL1        0.1344
     33 C           9.5495    0.4594    0.0000 C.ar    1  UNL1        0.1238
     34 C           9.7304    1.4852    0.0000 C.ar    1  UNL1        0.0222
     35 C           3.7815   -2.6804    0.0000 C.3     1  UNL1        0.0790
     36 H           3.7957   -1.5285    0.0000 H       1  UNL1        0.0337
     37 H           5.0051   -0.1738    0.0000 H       1  UNL1        0.0407
     38 H           5.6238    0.5547    0.0000 H       1  UNL1        0.0362
     39 H           4.5177    3.0640    0.0000 H       1  UNL1        0.0428
     40 H           2.4815   -1.0154    0.0000 H       1  UNL1        0.0564
     41 H           3.1998   -1.4301    0.0000 H       1  UNL1        0.0564
     42 H           5.6720    2.0612    0.0000 H       1  UNL1        0.0580
     43 H           6.8734    1.3840    0.0000 H       1  UNL1        0.0812
     44 H           2.0000    0.9412    0.0000 H       1  UNL1        0.2132
     45 H           5.6657    1.8660    0.0000 H       1  UNL1        0.0718
     46 H           4.2822   -0.9793    0.0000 H       1  UNL1        0.0658
     47 H           6.8047    0.2496    0.0000 H       1  UNL1        0.0622
     48 H           7.5142   -1.2068    0.0000 H       1  UNL1        0.0655
     49 H           5.5900    3.3314    0.0000 H       1  UNL1        0.2105
     50 H           8.4532   -0.4986    0.0000 H       1  UNL1        0.0691
     51 H          10.3122    1.6995    0.0000 H       1  UNL1        0.0691
     52 H           6.4271   -3.4049    0.0000 H       1  UNL1        0.2923
     53 H           3.8250   -2.0619    0.0000 H       1  UNL1        0.0660
     54 H           3.1630   -2.6369    0.0000 H       1  UNL1        0.0660
     55 H           3.7380   -3.2989    0.0000 H       1  UNL1        0.0660
     56 H           9.6697    3.3541    0.0000 H       1  UNL1        0.2922
     57 H          10.8965    0.0235    0.0000 H       1  UNL1        0.2921
@<TRIPOS>BOND
     1     1    14    1
     2     1    17    1
     3    14     2    1
     4     2    44    1
     5     3    18    2
     6     4    20    1
     7     4    26    1
     8    22     5    1
     9     5    49    1
    10     6    27    1
    11     6    35    1
    12     7    25    2
    13     8    30    1
    14     8    52    1
    15     9    32    1
    16     9    56    1
    17    10    33    1
    18    10    57    1
    19    11    12    1
    20    11    13    1
    21    11    17    1
    22    11    36    1
    23    12    14    1
    24    12    16    1
    25    12    37    1
    26    13    15    1
    27    13    21    1
    28    13    38    1
    29    14    18    1
    30    15    18    1
    31    15    19    1
    32    15    39    1
    33    16    19    2
    34    16    20    1
    35    17    40    1
    36    17    41    1
    37    19    42    1
    38    20    22    1
    39    20    43    1
    40    21    23   ar
    41    21    24   ar
    42    22    25    1
    43    22    45    1
    44    23    27   ar
    45    23    46    1
    46    24    28   ar
    47    24    47    1
    48    25    29    1
    49    26    29   ar
    50    26    31   ar
    51    27    30   ar
    52    28    30   ar
    53    28    48    1
    54    29    32   ar
    55    31    33   ar
    56    31    50    1
    57    32    34   ar
    58    33    34   ar
    59    34    51    1
    60    35    53    1
    61    35    54    1
    62    35    55    1
