@<TRIPOS>MOLECULE
IMPHY004562
 36 38 0 0 0
SMALL
GASTEIGER

@<TRIPOS>ATOM
      1 O           5.5301   -1.4279    0.0000 O.2     1  UNL1       -0.4620
      2 O           2.0000    0.5962    0.0000 O.3     1  UNL1       -0.4914
      3 O           5.5301    1.5721    0.0000 O.2     1  UNL1       -0.2864
      4 O           2.0000   -1.4521    0.0000 O.3     1  UNL1       -0.5032
      5 O           9.8602    2.0721    0.0000 O.3     1  UNL1       -0.4951
      6 C           4.6641    0.0721    0.0000 C.ar    1  UNL1        0.0682
      7 C           6.3961    0.0721    0.0000 C.ar    1  UNL1        0.0643
      8 C           4.6641   -0.9279    0.0000 C.ar    1  UNL1        0.1421
      9 C           5.5301    0.5721    0.0000 C.ar    1  UNL1        0.2003
     10 C           7.2622    0.5721    0.0000 C.ar    1  UNL1       -0.0110
     11 C           3.7702    0.6067    0.0000 C.ar    1  UNL1       -0.0019
     12 C           6.3961   -0.9279    0.0000 C.ar    1  UNL1        0.1038
     13 C           3.7702   -1.4626    0.0000 C.ar    1  UNL1        0.0265
     14 C           2.8641    0.0929    0.0000 C.ar    1  UNL1        0.1622
     15 C           2.8641   -0.9487    0.0000 C.ar    1  UNL1        0.1620
     16 C           8.1282    0.0721    0.0000 C.ar    1  UNL1       -0.0504
     17 C           7.2622    1.5721    0.0000 C.ar    1  UNL1       -0.0504
     18 C           8.9942    0.5721    0.0000 C.ar    1  UNL1       -0.0194
     19 C           8.1282    2.0721    0.0000 C.ar    1  UNL1       -0.0194
     20 C           8.9942    1.5721    0.0000 C.ar    1  UNL1        0.1201
     21 C           2.0038    1.5962    0.0000 C.3     1  UNL1        0.0790
     22 C          10.7263    1.5721    0.0000 C.3     1  UNL1        0.0788
     23 H           3.7773    1.2267    0.0000 H       1  UNL1        0.0663
     24 H           6.9331   -1.2379    0.0000 H       1  UNL1        0.1037
     25 H           3.7773   -2.0826    0.0000 H       1  UNL1        0.0692
     26 H           8.1282   -0.5479    0.0000 H       1  UNL1        0.0625
     27 H           6.7252    1.8821    0.0000 H       1  UNL1        0.0625
     28 H           9.5312    0.2621    0.0000 H       1  UNL1        0.0654
     29 H           8.1282    2.6921    0.0000 H       1  UNL1        0.0654
     30 H           2.0024   -2.0721    0.0000 H       1  UNL1        0.2923
     31 H           2.6238    1.5938    0.0000 H       1  UNL1        0.0660
     32 H           2.0062    2.2162    0.0000 H       1  UNL1        0.0660
     33 H           1.3839    1.5986    0.0000 H       1  UNL1        0.0660
     34 H          10.4163    1.0351    0.0000 H       1  UNL1        0.0660
     35 H          11.2632    1.2621    0.0000 H       1  UNL1        0.0660
     36 H          11.0363    2.1090    0.0000 H       1  UNL1        0.0660
@<TRIPOS>BOND
     1     1     8   ar
     2     1    12   ar
     3     2    14    1
     4     2    21    1
     5     3     9    2
     6     4    15    1
     7     4    30    1
     8     5    20    1
     9     5    22    1
    10     6     8   ar
    11     6     9   ar
    12     6    11   ar
    13     7     9   ar
    14     7    10    1
    15     7    12   ar
    16     8    13   ar
    17    10    16   ar
    18    10    17   ar
    19    11    14   ar
    20    11    23    1
    21    12    24    1
    22    13    15   ar
    23    13    25    1
    24    14    15   ar
    25    16    18   ar
    26    16    26    1
    27    17    19   ar
    28    17    27    1
    29    18    20   ar
    30    18    28    1
    31    19    20   ar
    32    19    29    1
    33    21    31    1
    34    21    32    1
    35    21    33    1
    36    22    34    1
    37    22    35    1
    38    22    36    1
