@<TRIPOS>MOLECULE
IMPHY008102
 67 72 0 0 0
SMALL
GASTEIGER

@<TRIPOS>ATOM
      1 O           5.3841   -0.2638    0.0000 O.3     1  UNL1       -0.4546
      2 O           6.8671   -2.3932    0.0000 O.3     1  UNL1       -0.3263
      3 O           9.3461    3.4519    0.0000 O.3     1  UNL1       -0.4532
      4 O           4.6770   -1.9710    0.0000 O.2     1  UNL1       -0.2472
      5 O           5.1350   -2.3932    0.0000 O.3     1  UNL1       -0.3405
      6 O          10.9649    2.6465    0.0000 O.2     1  UNL1       -0.2453
      7 O           6.8671   -4.3932    0.0000 O.3     1  UNL1       -0.3841
      8 O           5.1350   -5.3932    0.0000 O.3     1  UNL1       -0.3864
      9 O           7.1920    5.7032    0.0000 O.2     1  UNL1       -0.4706
     10 O           3.4030   -4.3932    0.0000 O.3     1  UNL1       -0.3865
     11 O           2.5369   -2.8932    0.0000 O.3     1  UNL1       -0.3924
     12 C           8.6134   -0.2853    0.0000 C.3     1  UNL1        0.0219
     13 C           8.0398    0.5339    0.0000 C.3     1  UNL1        0.0187
     14 C           8.4654    1.4846    0.0000 C.3     1  UNL1        0.0102
     15 C           6.8671   -1.3933    0.0000 C.3     1  UNL1        0.1926
     16 C           6.8671   -0.3933    0.0000 C.3     1  UNL1        0.1257
     17 C           9.6523   -0.2105    0.0000 C.3     1  UNL1       -0.0247
     18 C           9.5023    1.5834    0.0000 C.2     1  UNL1        0.0391
     19 C           7.8227    2.3587    0.0000 C.3     1  UNL1       -0.0013
     20 C           9.1869   -1.1044    0.0000 C.3     1  UNL1       -0.0554
     21 C           7.5741   -2.6000    0.0000 C.2     1  UNL1       -0.0416
     22 C          10.0998    0.7301    0.0000 C.2     1  UNL1       -0.0729
     23 C           8.2812   -1.8929    0.0000 C.2     1  UNL1       -0.0444
     24 C           7.4975    1.7360    0.0000 C.3     1  UNL1       -0.0548
     25 C           5.3841   -1.2638    0.0000 C.2     1  UNL1        0.3447
     26 C           8.2660    3.3490    0.0000 C.3     1  UNL1        0.1321
     27 C           9.9684    2.5631    0.0000 C.2     1  UNL1        0.3360
     28 C           6.0010   -2.8932    0.0000 C.3     1  UNL1        0.1897
     29 C           7.6830    4.1615    0.0000 C.ar    1  UNL1        0.0304
     30 C           6.0010   -3.8932    0.0000 C.3     1  UNL1        0.1342
     31 C           5.1350   -4.3932    0.0000 C.3     1  UNL1        0.1141
     32 C           4.2690   -2.8932    0.0000 C.3     1  UNL1        0.1130
     33 C           4.2690   -3.8932    0.0000 C.3     1  UNL1        0.1119
     34 C           6.6830    4.1674    0.0000 C.ar    1  UNL1       -0.0172
     35 C           7.9976    5.1107    0.0000 C.ar    1  UNL1        0.0983
     36 C           3.4030   -2.3932    0.0000 C.3     1  UNL1        0.0730
     37 C           6.3796    5.1202    0.0000 C.ar    1  UNL1        0.0921
     38 H           7.3435    1.0214    0.0000 H       1  UNL1        0.0355
     39 H           6.8671    0.4567    0.0000 H       1  UNL1        0.0782
     40 H           9.5903   -0.8274    0.0000 H       1  UNL1        0.0314
     41 H          10.2495   -0.3771    0.0000 H       1  UNL1        0.0314
     42 H           7.3085    2.7052    0.0000 H       1  UNL1        0.0313
     43 H           7.3934    1.9114    0.0000 H       1  UNL1        0.0313
     44 H           8.6790   -1.4600    0.0000 H       1  UNL1        0.0236
     45 H           9.5425   -1.6123    0.0000 H       1  UNL1        0.0236
     46 H           9.6948   -0.7488    0.0000 H       1  UNL1        0.0236
     47 H           7.4951   -3.2150    0.0000 H       1  UNL1        0.0604
     48 H          10.7176    0.7818    0.0000 H       1  UNL1        0.0577
     49 H           8.9011   -1.9020    0.0000 H       1  UNL1        0.0606
     50 H           7.6534    2.3361    0.0000 H       1  UNL1        0.0238
     51 H           6.8974    1.8919    0.0000 H       1  UNL1        0.0238
     52 H           7.3416    1.1360    0.0000 H       1  UNL1        0.0238
     53 H           7.6491    3.2867    0.0000 H       1  UNL1        0.0786
     54 H           6.0010   -2.2732    0.0000 H       1  UNL1        0.0938
     55 H           6.0010   -4.5132    0.0000 H       1  UNL1        0.0671
     56 H           4.5981   -4.7032    0.0000 H       1  UNL1        0.0648
     57 H           4.2690   -2.2732    0.0000 H       1  UNL1        0.0647
     58 H           3.7320   -3.5832    0.0000 H       1  UNL1        0.0647
     59 H           6.3156    3.6680    0.0000 H       1  UNL1        0.0653
     60 H           8.5884    5.2988    0.0000 H       1  UNL1        0.1033
     61 H           6.8671   -5.0132    0.0000 H       1  UNL1        0.2101
     62 H           3.8015   -1.9183    0.0000 H       1  UNL1        0.0584
     63 H           3.0044   -1.9183    0.0000 H       1  UNL1        0.0584
     64 H           5.7911    5.3153    0.0000 H       1  UNL1        0.1029
     65 H           4.5981   -5.7032    0.0000 H       1  UNL1        0.2100
     66 H           3.4030   -5.0132    0.0000 H       1  UNL1        0.2100
     67 H           2.0000   -2.5832    0.0000 H       1  UNL1        0.2095
@<TRIPOS>BOND
     1     1    16    1
     2     1    25    1
     3    15     2    1
     4    28     2    1
     5     3    26    1
     6     3    27    1
     7     4    25    2
     8     5    28    1
     9     5    32    1
    10     6    27    2
    11    30     7    1
    12     7    61    1
    13    31     8    1
    14     8    65    1
    15     9    35   ar
    16     9    37   ar
    17    33    10    1
    18    10    66    1
    19    11    36    1
    20    11    67    1
    21    12    13    1
    22    12    15    1
    23    12    17    1
    24    12    20    1
    25    13    14    1
    26    13    16    1
    27    13    38    1
    28    14    18    1
    29    14    19    1
    30    14    24    1
    31    15    21    1
    32    15    25    1
    33    16    23    1
    34    16    39    1
    35    17    22    1
    36    17    40    1
    37    17    41    1
    38    18    22    2
    39    18    27    1
    40    19    26    1
    41    19    42    1
    42    19    43    1
    43    20    44    1
    44    20    45    1
    45    20    46    1
    46    21    23    2
    47    21    47    1
    48    22    48    1
    49    23    49    1
    50    24    50    1
    51    24    51    1
    52    24    52    1
    53    26    29    1
    54    26    53    1
    55    28    30    1
    56    28    54    1
    57    29    34   ar
    58    29    35   ar
    59    30    31    1
    60    30    55    1
    61    31    33    1
    62    31    56    1
    63    32    33    1
    64    32    36    1
    65    32    57    1
    66    33    58    1
    67    34    37   ar
    68    34    59    1
    69    35    60    1
    70    36    62    1
    71    36    63    1
    72    37    64    1
