@<TRIPOS>MOLECULE
IMPHY004325
 58 61 0 0 0
SMALL
GASTEIGER

@<TRIPOS>ATOM
      1 O           5.6269    0.6547    0.0000 O.3     1  UNL1       -0.4842
      2 O           7.2738   -2.4362    0.0000 O.3     1  UNL1       -0.5055
      3 O           3.7357   -2.3263    0.0000 O.3     1  UNL1       -0.5051
      4 O           2.9347   -0.7390    0.0000 O.2     1  UNL1       -0.2955
      5 O           6.3229   -3.9383    0.0000 O.2     1  UNL1       -0.2955
      6 C           5.2888    1.9898    0.0000 C.3     1  UNL1        0.0046
      7 C           3.8899    1.9986    0.0000 C.3     1  UNL1       -0.0256
      8 C           5.0300    2.9557    0.0000 C.3     1  UNL1       -0.0350
      9 C           6.5098    1.1241    0.0000 C.3     1  UNL1        0.1145
     10 C           5.7666    3.9383    0.0000 C.3     1  UNL1       -0.0427
     11 C           7.0632    2.6446    0.0000 C.3     1  UNL1       -0.0461
     12 C           7.3389    1.6833    0.0000 C.3     1  UNL1       -0.0123
     13 C           7.3579    0.5942    0.0000 C.3     1  UNL1       -0.0056
     14 C           3.0238    2.4986    0.0000 C.3     1  UNL1       -0.0592
     15 C           3.3899    1.1326    0.0000 C.3     1  UNL1       -0.0592
     16 C           7.3230   -0.4052    0.0000 C.3     1  UNL1       -0.0050
     17 C           6.4400   -0.8746    0.0000 C.ar    1  UNL1        0.0405
     18 C           5.5920   -0.3447    0.0000 C.ar    1  UNL1        0.1420
     19 C           8.1710   -0.9351    0.0000 C.3     1  UNL1       -0.0435
     20 C           9.0540   -0.4656    0.0000 C.3     1  UNL1       -0.0462
     21 C           4.6649   -0.8195    0.0000 C.ar    1  UNL1        0.0983
     22 C           6.4197   -1.9161    0.0000 C.ar    1  UNL1        0.1375
     23 C           5.5038   -2.4122    0.0000 C.ar    1  UNL1        0.0980
     24 C           4.6205   -1.8602    0.0000 C.ar    1  UNL1        0.1443
     25 C           9.9020   -0.9955    0.0000 C.3     1  UNL1       -0.0626
     26 C           9.0889    0.5338    0.0000 C.3     1  UNL1       -0.0626
     27 C           3.8230   -0.2798    0.0000 C.2     1  UNL1        0.1573
     28 C           5.4728   -3.4117    0.0000 C.2     1  UNL1        0.1573
     29 H           5.5088    1.1688    0.0000 H       1  UNL1        0.0345
     30 H           4.8100    3.7768    0.0000 H       1  UNL1        0.0306
     31 H           5.4488    4.4707    0.0000 H       1  UNL1        0.0272
     32 H           6.3797    4.0303    0.0000 H       1  UNL1        0.0272
     33 H           7.0683    3.2646    0.0000 H       1  UNL1        0.0269
     34 H           7.6775    2.7284    0.0000 H       1  UNL1        0.0269
     35 H           7.9137    1.9156    0.0000 H       1  UNL1        0.0304
     36 H           7.6299    1.1359    0.0000 H       1  UNL1        0.0304
     37 H           7.5901    1.1691    0.0000 H       1  UNL1        0.0310
     38 H           7.9643    0.4653    0.0000 H       1  UNL1        0.0310
     39 H           3.9268    0.8226    0.0000 H       1  UNL1        0.0235
     40 H           3.0799    0.5957    0.0000 H       1  UNL1        0.0235
     41 H           2.8529    1.4426    0.0000 H       1  UNL1        0.0235
     42 H           2.7138    1.9617    0.0000 H       1  UNL1        0.0235
     43 H           2.4869    2.8086    0.0000 H       1  UNL1        0.0235
     44 H           3.3338    3.0356    0.0000 H       1  UNL1        0.0235
     45 H           7.3013   -1.0248    0.0000 H       1  UNL1        0.0352
     46 H           8.5527   -1.4237    0.0000 H       1  UNL1        0.0274
     47 H           7.7562   -1.3958    0.0000 H       1  UNL1        0.0274
     48 H           8.5282   -0.1371    0.0000 H       1  UNL1        0.0296
     49 H          10.2306   -0.4698    0.0000 H       1  UNL1        0.0232
     50 H          10.4278   -1.3241    0.0000 H       1  UNL1        0.0232
     51 H           9.5735   -1.5213    0.0000 H       1  UNL1        0.0232
     52 H           8.4692    0.5554    0.0000 H       1  UNL1        0.0232
     53 H           9.1105    1.1534    0.0000 H       1  UNL1        0.0232
     54 H           9.7085    0.5121    0.0000 H       1  UNL1        0.0232
     55 H           3.8518    0.3395    0.0000 H       1  UNL1        0.1084
     56 H           7.2594   -3.0560    0.0000 H       1  UNL1        0.2922
     57 H           4.9265   -3.7049    0.0000 H       1  UNL1        0.1084
     58 H           3.7117   -2.9458    0.0000 H       1  UNL1        0.2922
@<TRIPOS>BOND
     1     9     1    1
     2     1    18    1
     3     2    22    1
     4     2    56    1
     5     3    24    1
     6     3    58    1
     7     4    27    2
     8     5    28    2
     9     6     7    1
    10     6     9    1
    11     6    10    1
    12     6    29    1
    13     7     8    1
    14     7    14    1
    15     7    15    1
    16     8    10    1
    17     8    11    1
    18     8    30    1
    19     9    12    1
    20     9    13    1
    21    10    31    1
    22    10    32    1
    23    11    12    1
    24    11    33    1
    25    11    34    1
    26    12    35    1
    27    12    36    1
    28    13    16    1
    29    13    37    1
    30    13    38    1
    31    14    42    1
    32    14    43    1
    33    14    44    1
    34    15    39    1
    35    15    40    1
    36    15    41    1
    37    16    17    1
    38    16    19    1
    39    16    45    1
    40    17    18   ar
    41    17    22   ar
    42    18    21   ar
    43    19    20    1
    44    19    46    1
    45    19    47    1
    46    20    25    1
    47    20    26    1
    48    20    48    1
    49    21    24   ar
    50    21    27    1
    51    22    23   ar
    52    23    24   ar
    53    23    28    1
    54    25    49    1
    55    25    50    1
    56    25    51    1
    57    26    52    1
    58    26    53    1
    59    26    54    1
    60    27    55    1
    61    28    57    1
