@<TRIPOS>MOLECULE
IMPHY008584
 58 61 0 0 0
SMALL
GASTEIGER

@<TRIPOS>ATOM
      1 O           8.5991   -2.7819    0.0000 O.3     1  UNL1       -0.3302
      2 O           6.8671   -4.7819    0.0000 O.3     1  UNL1       -0.3864
      3 O          10.3312   -2.7819    0.0000 O.3     1  UNL1       -0.4607
      4 O           8.5991   -5.7819    0.0000 O.3     1  UNL1       -0.3864
      5 O          10.3312   -4.7819    0.0000 O.3     1  UNL1       -0.3829
      6 O           6.0010   -3.2819    0.0000 O.3     1  UNL1       -0.4616
      7 O          12.0871    0.2806    0.0000 O.2     1  UNL1       -0.4620
      8 O           5.1350   -1.7819    0.0000 O.2     1  UNL1       -0.2502
      9 O           9.4948    1.7906    0.0000 O.2     1  UNL1       -0.2864
     10 O           2.5369   -3.2819    0.0000 O.3     1  UNL1       -0.4802
     11 O           3.4030   -1.7819    0.0000 O.2     1  UNL1       -0.2504
     12 O          11.2423    5.7839    0.0000 O.3     1  UNL1       -0.5068
     13 C           7.7331   -4.2819    0.0000 C.3     1  UNL1        0.1130
     14 C           8.5991   -4.7819    0.0000 C.3     1  UNL1        0.1152
     15 C           7.7331   -3.2819    0.0000 C.3     1  UNL1        0.1250
     16 C           9.4651   -4.2819    0.0000 C.3     1  UNL1        0.1454
     17 C           9.4651   -3.2819    0.0000 C.3     1  UNL1        0.2308
     18 C           6.8671   -2.7819    0.0000 C.3     1  UNL1        0.1212
     19 C          10.3312   -1.7819    0.0000 C.ar    1  UNL1        0.1275
     20 C          11.2312   -1.2576    0.0000 C.ar    1  UNL1        0.0232
     21 C           9.4311   -1.2576    0.0000 C.ar    1  UNL1       -0.0189
     22 C           5.1350   -2.7819    0.0000 C.2     1  UNL1        0.3180
     23 C          11.2192   -0.2160    0.0000 C.ar    1  UNL1        0.1419
     24 C          10.3551    0.2873    0.0000 C.ar    1  UNL1        0.0648
     25 C           9.4431   -0.2160    0.0000 C.ar    1  UNL1       -0.0439
     26 C           4.2690   -3.2819    0.0000 C.3     1  UNL1        0.1418
     27 C          10.3589    1.2873    0.0000 C.ar    1  UNL1        0.2001
     28 C          11.2269    1.7840    0.0000 C.ar    1  UNL1        0.0643
     29 C          12.0910    1.2806    0.0000 C.ar    1  UNL1        0.1038
     30 C          11.2307    2.7840    0.0000 C.ar    1  UNL1       -0.0110
     31 C           3.4030   -2.7819    0.0000 C.2     1  UNL1        0.3155
     32 C          10.3667    3.2873    0.0000 C.ar    1  UNL1       -0.0504
     33 C          12.0987    3.2806    0.0000 C.ar    1  UNL1       -0.0504
     34 C          10.3705    4.2873    0.0000 C.ar    1  UNL1       -0.0196
     35 C          12.1025    4.2806    0.0000 C.ar    1  UNL1       -0.0196
     36 C          11.2385    4.7840    0.0000 C.ar    1  UNL1        0.1169
     37 H           7.7331   -4.9019    0.0000 H       1  UNL1        0.0647
     38 H           9.1360   -5.0919    0.0000 H       1  UNL1        0.0648
     39 H           7.7331   -2.6619    0.0000 H       1  UNL1        0.0658
     40 H           9.4651   -4.9019    0.0000 H       1  UNL1        0.0683
     41 H          10.0021   -3.5919    0.0000 H       1  UNL1        0.1084
     42 H           7.2656   -2.3069    0.0000 H       1  UNL1        0.0724
     43 H           6.4685   -2.3069    0.0000 H       1  UNL1        0.0724
     44 H           6.8671   -5.4019    0.0000 H       1  UNL1        0.2100
     45 H           8.0622   -6.0919    0.0000 H       1  UNL1        0.2100
     46 H          10.3312   -5.4019    0.0000 H       1  UNL1        0.2102
     47 H          11.7705   -1.5634    0.0000 H       1  UNL1        0.0691
     48 H           8.8918   -1.5634    0.0000 H       1  UNL1        0.0654
     49 H           8.9110    0.1022    0.0000 H       1  UNL1        0.0627
     50 H           3.8705   -3.7568    0.0000 H       1  UNL1        0.0493
     51 H           4.6675   -3.7568    0.0000 H       1  UNL1        0.0493
     52 H          12.6291    1.5886    0.0000 H       1  UNL1        0.1037
     53 H           9.8285    2.9794    0.0000 H       1  UNL1        0.0625
     54 H          12.6344    2.9686    0.0000 H       1  UNL1        0.0625
     55 H           9.8348    4.5994    0.0000 H       1  UNL1        0.0654
     56 H          12.6407    4.5885    0.0000 H       1  UNL1        0.0654
     57 H           2.0000   -2.9719    0.0000 H       1  UNL1        0.2951
     58 H          11.7804    6.0919    0.0000 H       1  UNL1        0.2921
@<TRIPOS>BOND
     1     1    15    1
     2     1    17    1
     3    13     2    1
     4     2    44    1
     5    17     3    1
     6     3    19    1
     7    14     4    1
     8     4    45    1
     9    16     5    1
    10     5    46    1
    11     6    18    1
    12     6    22    1
    13     7    23   ar
    14     7    29   ar
    15     8    22    2
    16     9    27    2
    17    10    31    1
    18    10    57    1
    19    11    31    2
    20    12    36    1
    21    12    58    1
    22    13    14    1
    23    13    15    1
    24    13    37    1
    25    14    16    1
    26    14    38    1
    27    15    18    1
    28    15    39    1
    29    16    17    1
    30    16    40    1
    31    17    41    1
    32    18    42    1
    33    18    43    1
    34    19    20   ar
    35    19    21   ar
    36    20    23   ar
    37    20    47    1
    38    21    25   ar
    39    21    48    1
    40    22    26    1
    41    23    24   ar
    42    24    25   ar
    43    24    27   ar
    44    25    49    1
    45    26    31    1
    46    26    50    1
    47    26    51    1
    48    27    28   ar
    49    28    29   ar
    50    28    30    1
    51    29    52    1
    52    30    32   ar
    53    30    33   ar
    54    32    34   ar
    55    32    53    1
    56    33    35   ar
    57    33    54    1
    58    34    36   ar
    59    34    55    1
    60    35    36   ar
    61    35    56    1
