@<TRIPOS>MOLECULE
IMPHY010989
 68 74 0 0 0
SMALL
GASTEIGER

@<TRIPOS>ATOM
      1 O           3.7885    2.5620    0.0000 O.3     1  UNL1       -0.3646
      2 O           4.6550    4.0620    0.0000 O.3     1  UNL1       -0.3846
      3 O           2.8600   -5.1251    0.0000 O.3     1  UNL1       -0.3565
      4 O           3.7359   -2.6280    0.0000 O.3     1  UNL1       -0.3447
      5 O           8.1573    3.0589    0.0000 O.2     1  UNL1       -0.2920
      6 O           2.0038   -2.6213    0.0000 O.3     1  UNL1       -0.3647
      7 C           4.6550    3.0620    0.0000 C.3     1  UNL1        0.1156
      8 C           4.6550    2.0620    0.0000 C.3     1  UNL1        0.0951
      9 C           6.3871    3.0620    0.0000 C.3     1  UNL1        0.0650
     10 C           5.5211    3.5620    0.0000 C.3     1  UNL1        0.1104
     11 C           6.3871    2.0620    0.0000 C.3     1  UNL1       -0.0163
     12 C           5.5211    1.5620    0.0000 C.3     1  UNL1        0.0170
     13 C           7.2971    1.5552    0.0000 C.3     1  UNL1       -0.0446
     14 C           5.5050    4.6036    0.0000 C.3     1  UNL1       -0.0019
     15 C           5.5050    0.5205    0.0000 C.ar    1  UNL1       -0.0383
     16 C           7.2531    2.5620    0.0000 C.3     1  UNL1       -0.0495
     17 C           7.2971    3.5689    0.0000 C.2     1  UNL1        0.1647
     18 C           7.3051    0.5136    0.0000 C.3     1  UNL1       -0.0271
     19 C           6.4030   -0.0072    0.0000 C.ar    1  UNL1       -0.0435
     20 C           3.7282   -4.6280    0.0000 C.3     1  UNL1        0.1034
     21 C           2.8641   -4.1246    0.0000 C.3     1  UNL1        0.1463
     22 C           6.4030    5.1313    0.0000 C.2     1  UNL1       -0.0779
     23 C           4.5961   -4.1313    0.0000 C.3     1  UNL1        0.0059
     24 C           7.3051    4.6105    0.0000 C.2     1  UNL1       -0.0224
     25 C           4.6000   -3.1313    0.0000 C.3     1  UNL1        0.0710
     26 C           4.5531   -0.0001    0.0000 C.ar    1  UNL1       -0.0577
     27 C           2.8680   -3.1246    0.0000 C.3     1  UNL1        0.1883
     28 C           5.4679   -2.6347    0.0000 C.3     1  UNL1        0.0078
     29 C           6.4114   -1.0922    0.0000 C.ar    1  UNL1       -0.0548
     30 C           5.4718   -1.6347    0.0000 C.ar    1  UNL1       -0.0418
     31 C           4.5923   -5.1313    0.0000 C.3     1  UNL1       -0.0328
     32 C           2.0000   -3.6213    0.0000 C.3     1  UNL1       -0.0282
     33 C           4.5364   -1.0850    0.0000 C.ar    1  UNL1       -0.0579
     34 C           6.3320   -3.1380    0.0000 C.3     1  UNL1       -0.0560
     35 H           4.3451    3.5990    0.0000 H       1  UNL1        0.0651
     36 H           4.3451    1.5251    0.0000 H       1  UNL1        0.0629
     37 H           7.1199    2.4927    0.0000 H       1  UNL1        0.0318
     38 H           4.7817    1.1427    0.0000 H       1  UNL1        0.0378
     39 H           7.9088    1.4538    0.0000 H       1  UNL1        0.0272
     40 H           7.5016    2.1405    0.0000 H       1  UNL1        0.0272
     41 H           5.2870    5.1840    0.0000 H       1  UNL1        0.0336
     42 H           4.8959    4.4881    0.0000 H       1  UNL1        0.0336
     43 H           6.9431    2.0251    0.0000 H       1  UNL1        0.0240
     44 H           7.7901    2.2520    0.0000 H       1  UNL1        0.0240
     45 H           7.5631    3.0990    0.0000 H       1  UNL1        0.0240
     46 H           7.5187   -0.0685    0.0000 H       1  UNL1        0.0313
     47 H           7.9152    0.6244    0.0000 H       1  UNL1        0.0313
     48 H           4.6550    4.6820    0.0000 H       1  UNL1        0.2103
     49 H           6.4007    5.7513    0.0000 H       1  UNL1        0.0574
     50 H           4.8059   -4.7147    0.0000 H       1  UNL1        0.0319
     51 H           5.2071   -4.0260    0.0000 H       1  UNL1        0.0319
     52 H           7.8433    4.9184    0.0000 H       1  UNL1        0.0649
     53 H           4.6033   -2.2813    0.0000 H       1  UNL1        0.0604
     54 H           4.0222    0.3202    0.0000 H       1  UNL1        0.0621
     55 H           2.8703   -2.5046    0.0000 H       1  UNL1        0.0939
     56 H           5.4655   -3.2547    0.0000 H       1  UNL1        0.0371
     57 H           6.9495   -1.4001    0.0000 H       1  UNL1        0.0623
     58 H           4.2802   -5.6670    0.0000 H       1  UNL1        0.0258
     59 H           5.1280   -5.4434    0.0000 H       1  UNL1        0.0258
     60 H           4.9043   -4.5956    0.0000 H       1  UNL1        0.0258
     61 H           2.3121   -3.0856    0.0000 H       1  UNL1        0.0260
     62 H           1.4643   -3.3092    0.0000 H       1  UNL1        0.0260
     63 H           1.6879   -4.1570    0.0000 H       1  UNL1        0.0260
     64 H           3.9959   -1.3887    0.0000 H       1  UNL1        0.0620
     65 H           6.0200   -3.6737    0.0000 H       1  UNL1        0.0236
     66 H           6.8678   -3.4501    0.0000 H       1  UNL1        0.0236
     67 H           6.6441   -2.6023    0.0000 H       1  UNL1        0.0236
     68 H           2.0062   -2.0013    0.0000 H       1  UNL1        0.2126
@<TRIPOS>BOND
     1     7     1    1
     2     8     1    1
     3    10     2    1
     4     2    48    1
     5     3    20    1
     6     3    21    1
     7     4    25    1
     8     4    27    1
     9     5    17    2
    10    27     6    1
    11     6    68    1
    12     7     8    1
    13     7    10    1
    14     7    35    1
    15     8    12    1
    16     8    36    1
    17     9    10    1
    18     9    11    1
    19     9    16    1
    20     9    17    1
    21    10    14    1
    22    11    12    1
    23    11    13    1
    24    11    37    1
    25    12    15    1
    26    12    38    1
    27    13    18    1
    28    13    39    1
    29    13    40    1
    30    14    22    1
    31    14    41    1
    32    14    42    1
    33    15    19   ar
    34    15    26   ar
    35    16    43    1
    36    16    44    1
    37    16    45    1
    38    17    24    1
    39    18    19    1
    40    18    46    1
    41    18    47    1
    42    19    29   ar
    43    20    21    1
    44    20    23    1
    45    20    31    1
    46    21    27    1
    47    21    32    1
    48    22    24    2
    49    22    49    1
    50    23    25    1
    51    23    50    1
    52    23    51    1
    53    24    52    1
    54    25    28    1
    55    25    53    1
    56    26    33   ar
    57    26    54    1
    58    27    55    1
    59    28    30    1
    60    28    34    1
    61    28    56    1
    62    29    30   ar
    63    29    57    1
    64    30    33   ar
    65    31    58    1
    66    31    59    1
    67    31    60    1
    68    32    61    1
    69    32    62    1
    70    32    63    1
    71    33    64    1
    72    34    65    1
    73    34    66    1
    74    34    67    1
