@<TRIPOS>MOLECULE
IMPHY007423
 72 75 0 0 0
SMALL
GASTEIGER

@<TRIPOS>ATOM
      1 O           5.1350   -1.9679    0.0000 O.3     1  UNL1       -0.3313
      2 O           6.8671   -1.9679    0.0000 O.3     1  UNL1       -0.4570
      3 O           5.1350   -4.9679    0.0000 O.3     1  UNL1       -0.3864
      4 O           3.4030   -3.9679    0.0000 O.3     1  UNL1       -0.3865
      5 O           6.8671   -3.9679    0.0000 O.3     1  UNL1       -0.3829
      6 O           2.5369   -2.4679    0.0000 O.3     1  UNL1       -0.3924
      7 O           5.1208    1.1112    0.0000 O.3     1  UNL1       -0.4907
      8 O           5.0971   -0.9369    0.0000 O.3     1  UNL1       -0.4885
      9 O           4.7860    4.6077    0.0000 O.3     1  UNL1       -0.4913
     10 O           6.5062    5.2779    0.0000 O.2     1  UNL1       -0.2840
     11 O          10.4256    2.7348    0.0000 O.2     1  UNL1       -0.2761
     12 N           8.9290    3.6066    0.0000 N.am    1  UNL1       -0.3087
     13 C           5.1350   -3.9679    0.0000 C.3     1  UNL1        0.1152
     14 C           4.2690   -3.4679    0.0000 C.3     1  UNL1        0.1120
     15 C           6.0010   -3.4679    0.0000 C.3     1  UNL1        0.1454
     16 C           4.2690   -2.4679    0.0000 C.3     1  UNL1        0.1140
     17 C           6.0010   -2.4679    0.0000 C.3     1  UNL1        0.2310
     18 C           8.4257    2.7425    0.0000 C.3     1  UNL1        0.0493
     19 C           8.9858    1.9141    0.0000 C.3     1  UNL1       -0.0263
     20 C           8.6874    0.9597    0.0000 C.3     1  UNL1       -0.0249
     21 C           7.7551    0.5980    0.0000 C.ar    1  UNL1       -0.0324
     22 C           3.4030   -1.9679    0.0000 C.3     1  UNL1        0.0731
     23 C           6.8910    1.1013    0.0000 C.ar    1  UNL1        0.0312
     24 C           7.4288    2.8211    0.0000 C.ar    1  UNL1       -0.0157
     25 C           6.7458    2.0907    0.0000 C.ar    1  UNL1       -0.0088
     26 C           6.8671   -0.9679    0.0000 C.ar    1  UNL1        0.1694
     27 C           7.7671   -0.4436    0.0000 C.ar    1  UNL1       -0.0122
     28 C           5.9790    0.5980    0.0000 C.ar    1  UNL1        0.1731
     29 C           5.9670   -0.4436    0.0000 C.ar    1  UNL1        0.2043
     30 C           7.2798    3.7905    0.0000 C.ar    1  UNL1       -0.0057
     31 C           5.7685    2.1743    0.0000 C.ar    1  UNL1       -0.0500
     32 C           6.4303    4.2808    0.0000 C.ar    1  UNL1        0.2206
     33 C           5.2224    2.9890    0.0000 C.ar    1  UNL1       -0.0155
     34 C           9.9290    3.6028    0.0000 C.2     1  UNL1        0.2104
     35 C           5.5164    3.9247    0.0000 C.ar    1  UNL1        0.1665
     36 C           4.2472    0.6247    0.0000 C.3     1  UNL1        0.0790
     37 C          10.4323    4.4669    0.0000 C.3     1  UNL1        0.0122
     38 C           4.2350   -0.4302    0.0000 C.3     1  UNL1        0.0791
     39 C           3.8293    4.3167    0.0000 C.3     1  UNL1        0.0790
     40 H           5.6720   -4.2779    0.0000 H       1  UNL1        0.0648
     41 H           4.2690   -4.0879    0.0000 H       1  UNL1        0.0647
     42 H           6.5380   -3.1579    0.0000 H       1  UNL1        0.0683
     43 H           4.2690   -1.8479    0.0000 H       1  UNL1        0.0647
     44 H           6.0010   -1.8479    0.0000 H       1  UNL1        0.1084
     45 H           9.0453    2.7633    0.0000 H       1  UNL1        0.0548
     46 H           9.5215    1.6021    0.0000 H       1  UNL1        0.0289
     47 H           9.4092    2.3670    0.0000 H       1  UNL1        0.0289
     48 H           8.7774    0.3463    0.0000 H       1  UNL1        0.0314
     49 H           9.3054    0.9110    0.0000 H       1  UNL1        0.0314
     50 H           3.8015   -1.4929    0.0000 H       1  UNL1        0.0584
     51 H           3.0044   -1.4929    0.0000 H       1  UNL1        0.0584
     52 H           8.3064   -0.7495    0.0000 H       1  UNL1        0.0658
     53 H           4.5981   -5.2779    0.0000 H       1  UNL1        0.2100
     54 H           3.4030   -4.5879    0.0000 H       1  UNL1        0.2100
     55 H           6.8671   -4.5879    0.0000 H       1  UNL1        0.2102
     56 H           8.6211    4.1448    0.0000 H       1  UNL1        0.1493
     57 H           7.7915    4.1406    0.0000 H       1  UNL1        0.0660
     58 H           5.4536    1.6403    0.0000 H       1  UNL1        0.0625
     59 H           2.0000   -2.1579    0.0000 H       1  UNL1        0.2095
     60 H           4.6088    2.9006    0.0000 H       1  UNL1        0.0655
     61 H           3.9455    1.1663    0.0000 H       1  UNL1        0.0660
     62 H           3.7056    0.3230    0.0000 H       1  UNL1        0.0660
     63 H           4.5489    0.0830    0.0000 H       1  UNL1        0.0660
     64 H          10.9681    4.1548    0.0000 H       1  UNL1        0.0322
     65 H          10.7444    5.0026    0.0000 H       1  UNL1        0.0322
     66 H           9.8966    4.7789    0.0000 H       1  UNL1        0.0322
     67 H           4.5491    0.1043    0.0000 H       1  UNL1        0.0660
     68 H           3.7005   -0.1161    0.0000 H       1  UNL1        0.0660
     69 H           3.9209   -0.9648    0.0000 H       1  UNL1        0.0660
     70 H           3.6488    4.9098    0.0000 H       1  UNL1        0.0660
     71 H           3.2361    4.1362    0.0000 H       1  UNL1        0.0660
     72 H           4.0098    3.7235    0.0000 H       1  UNL1        0.0660
@<TRIPOS>BOND
     1     1    16    1
     2     1    17    1
     3    17     2    1
     4     2    26    1
     5    13     3    1
     6     3    53    1
     7    14     4    1
     8     4    54    1
     9    15     5    1
    10     5    55    1
    11     6    22    1
    12     6    59    1
    13     7    28    1
    14     7    36    1
    15     8    29    1
    16     8    38    1
    17     9    35    1
    18     9    39    1
    19    10    32    2
    20    11    34    2
    21    18    12    1
    22    12    34   am
    23    12    56    1
    24    13    14    1
    25    13    15    1
    26    13    40    1
    27    14    16    1
    28    14    41    1
    29    15    17    1
    30    15    42    1
    31    16    22    1
    32    16    43    1
    33    17    44    1
    34    18    19    1
    35    18    24    1
    36    18    45    1
    37    19    20    1
    38    19    46    1
    39    19    47    1
    40    20    21    1
    41    20    48    1
    42    20    49    1
    43    21    23   ar
    44    21    27   ar
    45    22    50    1
    46    22    51    1
    47    23    25    1
    48    23    28   ar
    49    24    25   ar
    50    24    30   ar
    51    25    31   ar
    52    26    27   ar
    53    26    29   ar
    54    27    52    1
    55    28    29   ar
    56    30    32   ar
    57    30    57    1
    58    31    33   ar
    59    31    58    1
    60    32    35   ar
    61    33    35   ar
    62    33    60    1
    63    34    37    1
    64    36    61    1
    65    36    62    1
    66    36    63    1
    67    37    64    1
    68    37    65    1
    69    37    66    1
    70    38    67    1
    71    38    68    1
    72    38    69    1
    73    39    70    1
    74    39    71    1
    75    39    72    1
