@<TRIPOS>MOLECULE
IMPHY002791
 44 48 0 0 0
SMALL
GASTEIGER

@<TRIPOS>ATOM
      1 O           2.6079    0.6952    0.0000 O.3     1  UNL1       -0.4526
      2 O           2.6079    2.3716    0.0000 O.3     1  UNL1       -0.4526
      3 O           8.9752   -2.0647    0.0000 O.3     1  UNL1       -0.4907
      4 O           7.1377   -2.0358    0.0000 O.2     1  UNL1       -0.2669
      5 O          10.7866   -1.0189    0.0000 O.3     1  UNL1       -0.4914
      6 N           6.2435   -0.5081    0.0000 N.ar    1  UNL1       -0.3100
      7 C           6.2596    0.5334    0.0000 C.ar    1  UNL1        0.0601
      8 C           7.1256    1.0334    0.0000 C.ar    1  UNL1        0.0072
      9 C           5.3935    1.0334    0.0000 C.ar    1  UNL1        0.0100
     10 C           8.0356    0.5266    0.0000 C.ar    1  UNL1        0.0002
     11 C           8.0436   -0.5150    0.0000 C.ar    1  UNL1        0.0924
     12 C           5.3935    2.0334    0.0000 C.ar    1  UNL1       -0.0122
     13 C           7.1415   -1.0358    0.0000 C.ar    1  UNL1        0.2629
     14 C           7.1256    2.0334    0.0000 C.ar    1  UNL1       -0.0514
     15 C           4.4996    0.4988    0.0000 C.ar    1  UNL1       -0.0064
     16 C           6.2596    2.5334    0.0000 C.ar    1  UNL1       -0.0532
     17 C           4.4996    2.5681    0.0000 C.ar    1  UNL1       -0.0084
     18 C           3.5935    1.0126    0.0000 C.ar    1  UNL1        0.1669
     19 C           8.9790   -1.0648    0.0000 C.ar    1  UNL1        0.1744
     20 C           8.9624    1.0906    0.0000 C.ar    1  UNL1       -0.0495
     21 C           3.5935    2.0542    0.0000 C.ar    1  UNL1        0.1668
     22 C           5.3717   -0.9980    0.0000 C.3     1  UNL1        0.0153
     23 C           9.9187   -0.5223    0.0000 C.ar    1  UNL1        0.1623
     24 C           9.9103    0.5627    0.0000 C.ar    1  UNL1       -0.0157
     25 C           2.0000    1.5334    0.0000 C.3     1  UNL1        0.2332
     26 C           9.8393   -2.5681    0.0000 C.3     1  UNL1        0.0790
     27 C          11.6507   -0.5156    0.0000 C.3     1  UNL1        0.0790
     28 H           7.6625    2.3434    0.0000 H       1  UNL1        0.0624
     29 H           4.5068   -0.1212    0.0000 H       1  UNL1        0.0662
     30 H           6.2596    3.1534    0.0000 H       1  UNL1        0.0624
     31 H           4.5068    3.1880    0.0000 H       1  UNL1        0.0661
     32 H           8.9505    1.7105    0.0000 H       1  UNL1        0.0625
     33 H           5.0680   -0.4576    0.0000 H       1  UNL1        0.0457
     34 H           4.8313   -1.3018    0.0000 H       1  UNL1        0.0457
     35 H           5.6755   -1.5385    0.0000 H       1  UNL1        0.0457
     36 H          10.4436    0.8789    0.0000 H       1  UNL1        0.0655
     37 H           1.5391    1.9482    0.0000 H       1  UNL1        0.1166
     38 H           1.5391    1.1187    0.0000 H       1  UNL1        0.1166
     39 H           9.5272   -3.1038    0.0000 H       1  UNL1        0.0660
     40 H          10.3750   -2.8802    0.0000 H       1  UNL1        0.0660
     41 H          10.1513   -2.0323    0.0000 H       1  UNL1        0.0660
     42 H          11.9628   -1.0513    0.0000 H       1  UNL1        0.0660
     43 H          12.1864   -0.2035    0.0000 H       1  UNL1        0.0660
     44 H          11.3386    0.0202    0.0000 H       1  UNL1        0.0660
@<TRIPOS>BOND
     1     1    18    1
     2     1    25    1
     3     2    21    1
     4     2    25    1
     5     3    19    1
     6     3    26    1
     7     4    13    2
     8     5    23    1
     9     5    27    1
    10     6     7   ar
    11     6    13   ar
    12     6    22    1
    13     7     8   ar
    14     7     9   ar
    15     8    10   ar
    16     8    14   ar
    17     9    12   ar
    18     9    15   ar
    19    10    11   ar
    20    10    20   ar
    21    11    13   ar
    22    11    19   ar
    23    12    16   ar
    24    12    17   ar
    25    14    16   ar
    26    14    28    1
    27    15    18   ar
    28    15    29    1
    29    16    30    1
    30    17    21   ar
    31    17    31    1
    32    18    21   ar
    33    19    23   ar
    34    20    24   ar
    35    20    32    1
    36    22    33    1
    37    22    34    1
    38    22    35    1
    39    23    24   ar
    40    24    36    1
    41    25    37    1
    42    25    38    1
    43    26    39    1
    44    26    40    1
    45    26    41    1
    46    27    42    1
    47    27    43    1
    48    27    44    1
