@<TRIPOS>MOLECULE
IMPHY002783
 66 69 0 0 0
SMALL
GASTEIGER

@<TRIPOS>ATOM
      1 O           3.3885   -0.4740    0.0000 O.3     1  UNL1       -0.3837
      2 O           5.2414    2.3146    0.0000 O.3     1  UNL1       -0.3881
      3 O           5.7072   -1.8457    0.0000 O.3     1  UNL1       -0.3875
      4 O           3.9070   -1.4366    0.0000 O.3     1  UNL1       -0.4560
      5 O           8.0616   -1.6514    0.0000 O.3     1  UNL1       -0.3886
      6 O           3.9354    2.7746    0.0000 O.3     1  UNL1       -0.3887
      7 O           2.0502    1.7426    0.0000 O.3     1  UNL1       -0.3886
      8 O           5.2636   -2.5134    0.0000 O.2     1  UNL1       -0.2512
      9 C           6.2530   -0.2605    0.0000 C.3     1  UNL1        0.0086
     10 C           6.2480    0.7395    0.0000 C.3     1  UNL1       -0.0037
     11 C           4.5199    1.1151    0.0000 C.3     1  UNL1        0.0492
     12 C           4.0999    0.2288    0.0000 C.3     1  UNL1        0.1205
     13 C           5.4741    1.3420    0.0000 C.3     1  UNL1        0.0747
     14 C           7.2638    0.3514    0.0000 C.3     1  UNL1       -0.0390
     15 C           8.4411    0.2504    0.0000 C.3     1  UNL1       -0.0118
     16 C           5.4851   -0.8707    0.0000 C.3     1  UNL1        0.1009
     17 C           7.0379   -0.8801    0.0000 C.3     1  UNL1       -0.0155
     18 C           8.0117   -0.6527    0.0000 C.3     1  UNL1        0.0667
     19 C           4.5287   -0.6533    0.0000 C.3     1  UNL1        0.1587
     20 C           3.1333    0.3560    0.0000 C.3     1  UNL1        0.0263
     21 C           7.0267    1.3669    0.0000 C.3     1  UNL1       -0.0467
     22 C           8.0027    1.1492    0.0000 C.3     1  UNL1       -0.0472
     23 C           3.8092    1.7826    0.0000 C.3     1  UNL1        0.0898
     24 C           2.9539    1.3144    0.0000 C.3     1  UNL1        0.0893
     25 C           6.0894    2.1302    0.0000 C.3     1  UNL1       -0.0354
     26 C           8.9770   -0.9139    0.0000 C.3     1  UNL1       -0.0358
     27 C           2.1502    0.1730    0.0000 C.3     1  UNL1       -0.0546
     28 C           2.5253   -0.4379    0.0000 C.3     1  UNL1       -0.0546
     29 C           4.2745   -2.3666    0.0000 C.2     1  UNL1        0.3044
     30 C           3.6528   -3.1499    0.0000 C.3     1  UNL1        0.0332
     31 H           6.2438    1.5895    0.0000 H       1  UNL1        0.0335
     32 H           4.7386    1.9365    0.0000 H       1  UNL1        0.0384
     33 H           7.5048    0.9227    0.0000 H       1  UNL1        0.0275
     34 H           6.7948    0.7569    0.0000 H       1  UNL1        0.0275
     35 H           9.2688    0.4437    0.0000 H       1  UNL1        0.0329
     36 H           5.0468   -1.3092    0.0000 H       1  UNL1        0.0637
     37 H           6.5551   -1.2690    0.0000 H       1  UNL1        0.0299
     38 H           7.3097   -1.4373    0.0000 H       1  UNL1        0.0299
     39 H           3.9124   -0.5857    0.0000 H       1  UNL1        0.0790
     40 H           7.2929    1.9268    0.0000 H       1  UNL1        0.0269
     41 H           6.5400    1.7510    0.0000 H       1  UNL1        0.0269
     42 H           8.6065    1.2902    0.0000 H       1  UNL1        0.0269
     43 H           7.9996    1.7692    0.0000 H       1  UNL1        0.0269
     44 H           3.2968    2.1318    0.0000 H       1  UNL1        0.0624
     45 H           2.4629    0.9359    0.0000 H       1  UNL1        0.0625
     46 H           6.5781    1.7487    0.0000 H       1  UNL1        0.0257
     47 H           6.4709    2.6190    0.0000 H       1  UNL1        0.0257
     48 H           5.6007    2.5118    0.0000 H       1  UNL1        0.0257
     49 H           8.8150   -1.5124    0.0000 H       1  UNL1        0.0257
     50 H           9.5755   -1.0759    0.0000 H       1  UNL1        0.0257
     51 H           9.1390   -0.3154    0.0000 H       1  UNL1        0.0257
     52 H           2.0330   -0.0609    0.0000 H       1  UNL1        0.0237
     53 H           2.1483   -0.9301    0.0000 H       1  UNL1        0.0237
     54 H           2.0367    0.7825    0.0000 H       1  UNL1        0.0237
     55 H           3.0175   -0.8149    0.0000 H       1  UNL1        0.0237
     56 H           1.5407    0.0595    0.0000 H       1  UNL1        0.0237
     57 H           2.2637   -0.4366    0.0000 H       1  UNL1        0.0237
     58 H           3.2244   -1.0719    0.0000 H       1  UNL1        0.2104
     59 H           5.6915    2.7410    0.0000 H       1  UNL1        0.2102
     60 H           6.2996   -2.0287    0.0000 H       1  UNL1        0.2100
     61 H           8.6133   -1.9343    0.0000 H       1  UNL1        0.2102
     62 H           3.4419    3.1499    0.0000 H       1  UNL1        0.2099
     63 H           2.0000    2.3605    0.0000 H       1  UNL1        0.2099
     64 H           3.1672   -2.7644    0.0000 H       1  UNL1        0.0342
     65 H           3.2673   -3.6355    0.0000 H       1  UNL1        0.0342
     66 H           4.1384   -3.5353    0.0000 H       1  UNL1        0.0342
@<TRIPOS>BOND
     1    12     1    1
     2     1    58    1
     3    13     2    1
     4     2    59    1
     5    16     3    1
     6     3    60    1
     7    19     4    1
     8     4    29    1
     9    18     5    1
    10     5    61    1
    11    23     6    1
    12     6    62    1
    13    24     7    1
    14     7    63    1
    15     8    29    2
    16     9    10    1
    17     9    14    1
    18     9    16    1
    19     9    17    1
    20    10    13    1
    21    10    21    1
    22    10    31    1
    23    11    12    1
    24    11    13    1
    25    11    23    1
    26    11    32    1
    27    12    19    1
    28    12    20    1
    29    13    25    1
    30    14    15    1
    31    14    33    1
    32    14    34    1
    33    15    18    1
    34    15    22    1
    35    15    35    1
    36    16    19    1
    37    16    36    1
    38    17    18    1
    39    17    37    1
    40    17    38    1
    41    18    26    1
    42    19    39    1
    43    20    24    1
    44    20    27    1
    45    20    28    1
    46    21    22    1
    47    21    40    1
    48    21    41    1
    49    22    42    1
    50    22    43    1
    51    23    24    1
    52    23    44    1
    53    24    45    1
    54    25    46    1
    55    25    47    1
    56    25    48    1
    57    26    49    1
    58    26    50    1
    59    26    51    1
    60    27    54    1
    61    27    56    1
    62    27    57    1
    63    28    52    1
    64    28    53    1
    65    28    55    1
    66    29    30    1
    67    30    64    1
    68    30    65    1
    69    30    66    1
