@<TRIPOS>MOLECULE
IMPHY003595
 46 48 0 0 0
SMALL
GASTEIGER

@<TRIPOS>ATOM
      1 O4*         9.0755    2.1702    0.0000 O.3     1  UNL1       -0.3457
      2 O2*         6.5376    2.6746    0.0000 O.3     1  UNL1       -0.3847
      3 O3*         7.8194    4.4324    0.0000 O.3     1  UNL1       -0.3864
      4 O5*        10.8001    3.3482    0.0000 O.3     1  UNL1       -0.3924
      5 O           2.5369   -3.8924    0.0000 O.3     1  UNL1       -0.3907
      6 N           7.8133    0.9123    0.0000 N.ar    1  UNL1       -0.2855
      7 N           7.8133   -0.6972    0.0000 N.ar    1  UNL1       -0.2306
      8 N           6.0010    1.1076    0.0000 N.ar    1  UNL1       -0.2159
      9 N           6.0010   -1.8924    0.0000 N.pl3   1  UNL1       -0.3237
     10 N           5.1350   -0.3925    0.0000 N.ar    1  UNL1       -0.2186
     11 C2*         7.5376    2.6728    0.0000 C.3     1  UNL1        0.1285
     12 C1*         8.1240    1.8628    0.0000 C.3     1  UNL1        0.1667
     13 C3*         8.1268    3.4808    0.0000 C.3     1  UNL1        0.1135
     14 C4*         9.0773    3.1702    0.0000 C.3     1  UNL1        0.1126
     15 C5*         9.8873    3.7566    0.0000 C.3     1  UNL1        0.0730
     16 C           6.8671    0.6075    0.0000 C.ar    1  UNL1        0.1674
     17 C           8.3969    0.1075    0.0000 C.ar    1  UNL1        0.1004
     18 C           6.8671   -0.3925    0.0000 C.ar    1  UNL1        0.1475
     19 C           6.0010   -0.8925    0.0000 C.ar    1  UNL1        0.1500
     20 C           5.1350    0.6075    0.0000 C.ar    1  UNL1        0.1205
     21 C           5.1350   -2.3925    0.0000 C.3     1  UNL1        0.0291
     22 C           5.1350   -3.3924    0.0000 C.2     1  UNL1       -0.0660
     23 C           4.2690   -3.8924    0.0000 C.2     1  UNL1       -0.0500
     24 C           3.4030   -3.3924    0.0000 C.3     1  UNL1        0.0651
     25 C           4.2690   -4.8924    0.0000 C.3     1  UNL1       -0.0416
     26 H2*         7.2570    3.2257    0.0000 H       1  UNL1        0.0665
     27 H1*         8.5616    1.4236    0.0000 H       1  UNL1        0.0866
     28 H3*         8.5659    3.9185    0.0000 H       1  UNL1        0.0647
     29 H4*         9.6292    2.8877    0.0000 H       1  UNL1        0.0647
     30 H5*1       10.2349    4.2700    0.0000 H       1  UNL1        0.0584
     31 H5*2        9.4420    4.1880    0.0000 H       1  UNL1        0.0584
     32 H2*         6.2285    3.2120    0.0000 H       1  UNL1        0.2101
     33 H3*         8.2350    4.8924    0.0000 H       1  UNL1        0.2100
     34 H           9.0169    0.1075    0.0000 H       1  UNL1        0.1030
     35 H5*        11.3024    3.7118    0.0000 H       1  UNL1        0.2095
     36 H           4.5981    0.9175    0.0000 H       1  UNL1        0.1048
     37 H           6.5380   -2.2024    0.0000 H       1  UNL1        0.1478
     38 H           4.9230   -1.8098    0.0000 H       1  UNL1        0.0505
     39 H           4.5244   -2.5001    0.0000 H       1  UNL1        0.0505
     40 H           5.6720   -3.7024    0.0000 H       1  UNL1        0.0588
     41 H           3.8015   -2.9175    0.0000 H       1  UNL1        0.0604
     42 H           3.0044   -2.9175    0.0000 H       1  UNL1        0.0604
     43 H           3.6490   -4.8924    0.0000 H       1  UNL1        0.0275
     44 H           4.2690   -5.5124    0.0000 H       1  UNL1        0.0275
     45 H           4.8890   -4.8924    0.0000 H       1  UNL1        0.0275
     46 H           2.0000   -3.5824    0.0000 H       1  UNL1        0.2098
@<TRIPOS>BOND
     1     1    12    1
     2     1    14    1
     3    11     2    1
     4     2    32    1
     5    13     3    1
     6     3    33    1
     7     4    15    1
     8     4    35    1
     9     5    24    1
    10     5    46    1
    11    12     6    1
    12     6    16   ar
    13     6    17   ar
    14     7    17   ar
    15     7    18   ar
    16     8    16   ar
    17     8    20   ar
    18     9    19    1
    19     9    21    1
    20     9    37    1
    21    10    19   ar
    22    10    20   ar
    23    11    12    1
    24    11    13    1
    25    11    26    1
    26    12    27    1
    27    13    14    1
    28    13    28    1
    29    14    15    1
    30    14    29    1
    31    15    30    1
    32    15    31    1
    33    16    18   ar
    34    17    34    1
    35    18    19   ar
    36    20    36    1
    37    21    22    1
    38    21    38    1
    39    21    39    1
    40    22    23    2
    41    22    40    1
    42    23    24    1
    43    23    25    1
    44    24    41    1
    45    24    42    1
    46    25    43    1
    47    25    44    1
    48    25    45    1
