@<TRIPOS>MOLECULE
IMPHY007062
 18 18 0 0 0
SMALL
GASTEIGER

@<TRIPOS>ATOM
      1 O           2.8660    0.2500    0.0000 O.3     1  UNL1       -0.4944
      2 O           5.4641    1.7500    0.0000 O.2     1  UNL1       -0.2956
      3 C           3.7320   -0.2500    0.0000 C.ar    1  UNL1        0.1303
      4 C           4.5981    0.2500    0.0000 C.ar    1  UNL1        0.0558
      5 C           3.7320   -1.2500    0.0000 C.ar    1  UNL1       -0.0193
      6 C           5.4641   -0.2500    0.0000 C.ar    1  UNL1       -0.0480
      7 C           4.5981   -1.7500    0.0000 C.ar    1  UNL1       -0.0583
      8 C           5.4641   -1.2500    0.0000 C.ar    1  UNL1       -0.0609
      9 C           4.5981    1.2500    0.0000 C.2     1  UNL1        0.1537
     10 C           2.0000   -0.2500    0.0000 C.3     1  UNL1        0.0788
     11 H           3.1951   -1.5600    0.0000 H       1  UNL1        0.0654
     12 H           6.0010    0.0600    0.0000 H       1  UNL1        0.0626
     13 H           4.5981   -2.3700    0.0000 H       1  UNL1        0.0619
     14 H           6.0010   -1.5600    0.0000 H       1  UNL1        0.0618
     15 H           4.0611    1.5600    0.0000 H       1  UNL1        0.1083
     16 H           1.6900    0.2869    0.0000 H       1  UNL1        0.0660
     17 H           1.4631   -0.5600    0.0000 H       1  UNL1        0.0660
     18 H           2.3100   -0.7869    0.0000 H       1  UNL1        0.0660
@<TRIPOS>BOND
     1     1     3    1
     2     1    10    1
     3     2     9    2
     4     3     4   ar
     5     3     5   ar
     6     4     6   ar
     7     4     9    1
     8     5     7   ar
     9     5    11    1
    10     6     8   ar
    11     6    12    1
    12     7     8   ar
    13     7    13    1
    14     8    14    1
    15     9    15    1
    16    10    16    1
    17    10    17    1
    18    10    18    1
