@<TRIPOS>MOLECULE
IMPHY011776
 30 30 0 0 0
SMALL
GASTEIGER

@<TRIPOS>ATOM
      1 O           4.2690    0.9050    0.0000 O.3     1  UNL1       -0.3405
      2 O           6.0010    0.9050    0.0000 O.3     1  UNL1       -0.3490
      3 O           4.2690   -2.0950    0.0000 O.3     1  UNL1       -0.3864
      4 O           2.5369   -1.0950    0.0000 O.3     1  UNL1       -0.3865
      5 O           6.0010   -1.0950    0.0000 O.3     1  UNL1       -0.3841
      6 O           2.5369    1.9050    0.0000 O.3     1  UNL1       -0.3924
      7 C           4.2690   -1.0950    0.0000 C.3     1  UNL1        0.1141
      8 C           3.4030   -0.5950    0.0000 C.3     1  UNL1        0.1119
      9 C           5.1350   -0.5950    0.0000 C.3     1  UNL1        0.1341
     10 C           3.4030    0.4050    0.0000 C.3     1  UNL1        0.1130
     11 C           5.1350    0.4050    0.0000 C.3     1  UNL1        0.1879
     12 C           2.5369    0.9050    0.0000 C.3     1  UNL1        0.0730
     13 C           6.0010    1.9050    0.0000 C.3     1  UNL1        0.0479
     14 C           6.8671    2.4050    0.0000 C.3     1  UNL1       -0.0415
     15 H           4.8059   -1.4050    0.0000 H       1  UNL1        0.0648
     16 H           3.4030   -1.2150    0.0000 H       1  UNL1        0.0647
     17 H           5.6720   -0.2850    0.0000 H       1  UNL1        0.0671
     18 H           3.4030    1.0250    0.0000 H       1  UNL1        0.0647
     19 H           5.1350    1.0250    0.0000 H       1  UNL1        0.0937
     20 H           1.9264    1.0127    0.0000 H       1  UNL1        0.0584
     21 H           2.3249    0.3224    0.0000 H       1  UNL1        0.0584
     22 H           3.7320   -2.4050    0.0000 H       1  UNL1        0.2100
     23 H           2.0000   -0.7850    0.0000 H       1  UNL1        0.2100
     24 H           6.5380   -0.7850    0.0000 H       1  UNL1        0.2101
     25 H           5.7890    2.4876    0.0000 H       1  UNL1        0.0558
     26 H           5.3905    1.7973    0.0000 H       1  UNL1        0.0558
     27 H           2.0000    2.2150    0.0000 H       1  UNL1        0.2095
     28 H           7.1771    1.8681    0.0000 H       1  UNL1        0.0252
     29 H           7.4040    2.7150    0.0000 H       1  UNL1        0.0252
     30 H           6.5571    2.9419    0.0000 H       1  UNL1        0.0252
@<TRIPOS>BOND
     1     1    10    1
     2     1    11    1
     3    11     2    1
     4     2    13    1
     5     7     3    1
     6     3    22    1
     7     8     4    1
     8     4    23    1
     9     9     5    1
    10     5    24    1
    11     6    12    1
    12     6    27    1
    13     7     8    1
    14     7     9    1
    15     7    15    1
    16     8    10    1
    17     8    16    1
    18     9    11    1
    19     9    17    1
    20    10    12    1
    21    10    18    1
    22    11    19    1
    23    12    20    1
    24    12    21    1
    25    13    14    1
    26    13    25    1
    27    13    26    1
    28    14    28    1
    29    14    29    1
    30    14    30    1
