@<TRIPOS>MOLECULE
IMPHY000418
 106 111 0 0 0
SMALL
GASTEIGER

@<TRIPOS>ATOM
      1 O           6.8671   -4.0400    0.0000 O.3     1  UNL1       -0.3356
      2 O           5.1350   -2.0400    0.0000 O.3     1  UNL1       -0.3313
      3 O           6.0010   -5.5400    0.0000 O.3     1  UNL1       -0.3305
      4 O           6.8671   -2.0400    0.0000 O.3     1  UNL1       -0.4572
      5 O           5.1350   -5.0400    0.0000 O.3     1  UNL1       -0.3863
      6 O           3.4030   -4.0400    0.0000 O.3     1  UNL1       -0.3865
      7 O           8.5991   -5.0400    0.0000 O.3     1  UNL1       -0.4504
      8 O           8.5991   -7.0400    0.0000 O.3     1  UNL1       -0.3853
      9 O           6.8671   -8.0399    0.0000 O.3     1  UNL1       -0.3860
     10 O           2.5369   -2.5400    0.0000 O.3     1  UNL1       -0.3924
     11 O           4.2690   -6.5400    0.0000 O.3     1  UNL1       -0.4788
     12 O           5.1350   -8.0399    0.0000 O.2     1  UNL1       -0.2480
     13 O           5.1350   -1.0400    0.0000 O.3     1  UNL1       -0.5032
     14 O           9.4651   -6.5400    0.0000 O.2     1  UNL1       -0.2456
     15 O           9.5650    2.9009    0.0000 O.3     1  UNL1       -0.4793
     16 O           8.0650    3.7670    0.0000 O.2     1  UNL1       -0.2489
     17 O           2.7585    5.4472    0.0000 O.3     1  UNL1       -0.4791
     18 OXT         3.1157    3.7523    0.0000 O.2     1  UNL1       -0.2486
     19 O           5.3369    7.7606    0.0000 O.3     1  UNL1       -0.4761
     20 O          13.7953   -4.0400    0.0000 O.3     1  UNL1       -0.4914
     21 OXT         6.9832    7.2226    0.0000 O.2     1  UNL1       -0.2434
     22 O          13.7953   -2.0400    0.0000 O.3     1  UNL1       -0.5033
     23 N           7.0763    1.9319    0.0000 N.pl3   1  UNL1       -0.2920
     24 N           4.7156    5.8596    0.0000 N.2     1  UNL1       -0.2620
     25 C           6.0010   -3.5400    0.0000 C.3     1  UNL1        0.1520
     26 C           5.1350   -4.0400    0.0000 C.3     1  UNL1        0.1155
     27 C           4.2690   -3.5400    0.0000 C.3     1  UNL1        0.1120
     28 C           6.0010   -2.5400    0.0000 C.3     1  UNL1        0.2313
     29 C           4.2690   -2.5400    0.0000 C.3     1  UNL1        0.1140
     30 C           6.8671   -5.0400    0.0000 C.3     1  UNL1        0.2004
     31 C           7.7331   -5.5400    0.0000 C.3     1  UNL1        0.1820
     32 C           7.7331   -6.5400    0.0000 C.3     1  UNL1        0.1256
     33 C           6.8671   -7.0400    0.0000 C.3     1  UNL1        0.1212
     34 C           6.0010   -6.5400    0.0000 C.3     1  UNL1        0.1860
     35 C           3.4030   -2.0400    0.0000 C.3     1  UNL1        0.0731
     36 C           6.8671   -1.0400    0.0000 C.ar    1  UNL1        0.1655
     37 C           5.1350   -7.0400    0.0000 C.2     1  UNL1        0.3367
     38 C           7.7331    0.4600    0.0000 C.ar    1  UNL1       -0.0200
     39 C           8.0650    2.0349    0.0000 C.3     1  UNL1        0.1285
     40 C           8.4701    1.1271    0.0000 C.3     1  UNL1        0.0035
     41 C           6.8671    0.9600    0.0000 C.ar    1  UNL1        0.0412
     42 C           7.7331   -0.5400    0.0000 C.ar    1  UNL1       -0.0112
     43 C           6.0010   -0.5400    0.0000 C.ar    1  UNL1        0.1604
     44 C           6.0010    0.4600    0.0000 C.ar    1  UNL1        0.0051
     45 C           9.4651   -5.5400    0.0000 C.2     1  UNL1        0.3324
     46 C           8.5650    2.9009    0.0000 C.2     1  UNL1        0.3260
     47 C           6.4084    2.6762    0.0000 C.2     1  UNL1       -0.0021
     48 C          10.3312   -5.0400    0.0000 C.2     1  UNL1        0.0231
     49 C           6.7191    3.6267    0.0000 C.2     1  UNL1       -0.0444
     50 C           6.0512    4.3710    0.0000 C.2     1  UNL1       -0.0414
     51 C           5.0727    4.1648    0.0000 C.3     1  UNL1        0.0053
     52 C          10.3312   -4.0400    0.0000 C.2     1  UNL1       -0.0477
     53 CA          4.4049    4.9091    0.0000 C.3     1  UNL1        0.1519
     54 C           6.3619    5.3215    0.0000 C.2     1  UNL1       -0.0264
     55 C          11.1972   -3.5400    0.0000 C.ar    1  UNL1       -0.0211
     56 CA          5.6941    6.0658    0.0000 C.2     1  UNL1        0.1433
     57 C           3.4264    4.7028    0.0000 C.2     1  UNL1        0.3298
     58 C          12.0632   -4.0400    0.0000 C.ar    1  UNL1       -0.0092
     59 C          11.1972   -2.5400    0.0000 C.ar    1  UNL1       -0.0509
     60 C           6.0047    7.0163    0.0000 C.2     1  UNL1        0.3549
     61 C          12.9292   -3.5400    0.0000 C.ar    1  UNL1        0.1618
     62 C          12.0632   -2.0400    0.0000 C.ar    1  UNL1       -0.0160
     63 C          12.9292   -2.5400    0.0000 C.ar    1  UNL1        0.1585
     64 C          14.6613   -3.5400    0.0000 C.3     1  UNL1        0.0790
     65 H           6.0010   -4.1600    0.0000 H       1  UNL1        0.0687
     66 H           4.5981   -4.3500    0.0000 H       1  UNL1        0.0648
     67 H           3.7320   -3.2300    0.0000 H       1  UNL1        0.0647
     68 H           6.0010   -1.9200    0.0000 H       1  UNL1        0.1084
     69 H           4.2690   -1.9200    0.0000 H       1  UNL1        0.0647
     70 H           7.4040   -4.7300    0.0000 H       1  UNL1        0.0950
     71 H           8.2700   -5.8500    0.0000 H       1  UNL1        0.0813
     72 H           7.7331   -7.1600    0.0000 H       1  UNL1        0.0659
     73 H           6.3301   -7.3500    0.0000 H       1  UNL1        0.0652
     74 H           5.4641   -6.2300    0.0000 H       1  UNL1        0.0741
     75 H           3.8015   -1.5650    0.0000 H       1  UNL1        0.0584
     76 H           3.0044   -1.5650    0.0000 H       1  UNL1        0.0584
     77 H           4.5981   -5.3500    0.0000 H       1  UNL1        0.2100
     78 H           3.4030   -4.6600    0.0000 H       1  UNL1        0.2100
     79 H           8.5991   -7.6600    0.0000 H       1  UNL1        0.2101
     80 H           7.7275    2.5550    0.0000 H       1  UNL1        0.0622
     81 H           8.8355    0.6263    0.0000 H       1  UNL1        0.0337
     82 H           9.0066    1.4379    0.0000 H       1  UNL1        0.0337
     83 H           6.3301   -8.3500    0.0000 H       1  UNL1        0.2100
     84 H           8.2700   -0.8500    0.0000 H       1  UNL1        0.0659
     85 H           5.4641    0.7700    0.0000 H       1  UNL1        0.0674
     86 H           2.0000   -2.2300    0.0000 H       1  UNL1        0.2095
     87 H           5.8018    2.5483    0.0000 H       1  UNL1        0.0784
     88 H           3.7320   -6.8500    0.0000 H       1  UNL1        0.2951
     89 H          10.8681   -5.3500    0.0000 H       1  UNL1        0.0689
     90 H           4.5981   -0.7300    0.0000 H       1  UNL1        0.2923
     91 H           7.3258    3.7545    0.0000 H       1  UNL1        0.0633
     92 H           9.8750    3.4379    0.0000 H       1  UNL1        0.2951
     93 H           4.5464    3.8371    0.0000 H       1  UNL1        0.0339
     94 H           5.3040    3.5895    0.0000 H       1  UNL1        0.0339
     95 H           9.7942   -3.7300    0.0000 H       1  UNL1        0.0626
     96 HA          3.9908    5.3705    0.0000 H       1  UNL1        0.0664
     97 H           6.9686    5.4494    0.0000 H       1  UNL1        0.0644
     98 H          12.0632   -4.6600    0.0000 H       1  UNL1        0.0661
     99 H          10.6603   -2.2300    0.0000 H       1  UNL1        0.0625
    100 H          12.0632   -1.4200    0.0000 H       1  UNL1        0.0655
    101 H           2.1519    5.3193    0.0000 H       1  UNL1        0.2951
    102 H           5.5295    8.3500    0.0000 H       1  UNL1        0.2955
    103 H          13.7953   -1.4200    0.0000 H       1  UNL1        0.2923
    104 H          14.9713   -4.0769    0.0000 H       1  UNL1        0.0660
    105 H          15.1982   -3.2300    0.0000 H       1  UNL1        0.0660
    106 H          14.3513   -3.0030    0.0000 H       1  UNL1        0.0660
@<TRIPOS>BOND
     1    25     1    1
     2    30     1    1
     3     2    28    1
     4     2    29    1
     5     3    30    1
     6     3    34    1
     7    28     4    1
     8     4    36    1
     9    26     5    1
    10     5    77    1
    11    27     6    1
    12     6    78    1
    13    31     7    1
    14     7    45    1
    15    32     8    1
    16     8    79    1
    17    33     9    1
    18     9    83    1
    19    10    35    1
    20    10    86    1
    21    11    37    1
    22    11    88    1
    23    12    37    2
    24    13    43    1
    25    13    90    1
    26    14    45    2
    27    15    46    1
    28    15    92    1
    29    16    46    2
    30    17    57    1
    31    17   101    1
    32    18    57    2
    33    19    60    1
    34    19   102    1
    35    20    61    1
    36    20    64    1
    37    21    60    2
    38    22    63    1
    39    22   103    1
    40    23    39    1
    41    23    41    1
    42    23    47    1
    43    24    53    1
    44    24    56    2
    45    25    26    1
    46    25    28    1
    47    25    65    1
    48    26    27    1
    49    26    66    1
    50    27    29    1
    51    27    67    1
    52    28    68    1
    53    29    35    1
    54    29    69    1
    55    30    31    1
    56    30    70    1
    57    31    32    1
    58    31    71    1
    59    32    33    1
    60    32    72    1
    61    33    34    1
    62    33    73    1
    63    34    37    1
    64    34    74    1
    65    35    75    1
    66    35    76    1
    67    36    42   ar
    68    36    43   ar
    69    38    40    1
    70    38    41   ar
    71    38    42   ar
    72    39    40    1
    73    39    46    1
    74    39    80    1
    75    40    81    1
    76    40    82    1
    77    41    44   ar
    78    42    84    1
    79    43    44   ar
    80    44    85    1
    81    45    48    1
    82    47    49    2
    83    47    87    1
    84    48    52    2
    85    48    89    1
    86    49    50    1
    87    49    91    1
    88    50    51    1
    89    50    54    2
    90    51    53    1
    91    51    93    1
    92    51    94    1
    93    52    55    1
    94    52    95    1
    95    53    57    1
    96    53    96    1
    97    54    56    1
    98    54    97    1
    99    55    58   ar
   100    55    59   ar
   101    56    60    1
   102    58    61   ar
   103    58    98    1
   104    59    62   ar
   105    59    99    1
   106    61    63   ar
   107    62    63   ar
   108    62   100    1
   109    64   104    1
   110    64   105    1
   111    64   106    1
