@<TRIPOS>MOLECULE
IMPHY006506
 13 12 0 0 0
SMALL
GASTEIGER

@<TRIPOS>ATOM
      1 C           4.5981    0.0600    0.0000 C.2     1  UNL1       -0.0871
      2 C           4.5981    1.0600    0.0000 C.3     1  UNL1       -0.0465
      3 C           3.7320   -0.4400    0.0000 C.2     1  UNL1       -0.0665
      4 C           2.8660    0.0600    0.0000 C.2     1  UNL1       -0.0692
      5 C           2.0000   -0.4400    0.0000 C.2     1  UNL1       -0.0987
      6 H           5.1350   -0.2500    0.0000 H       1  UNL1        0.0569
      7 H           5.2181    1.0600    0.0000 H       1  UNL1        0.0272
      8 H           4.5981    1.6800    0.0000 H       1  UNL1        0.0272
      9 H           3.9781    1.0600    0.0000 H       1  UNL1        0.0272
     10 H           3.7320   -1.0600    0.0000 H       1  UNL1        0.0614
     11 H           2.8660    0.6800    0.0000 H       1  UNL1        0.0612
     12 H           1.4631   -0.1300    0.0000 H       1  UNL1        0.0535
     13 H           2.0000   -1.0600    0.0000 H       1  UNL1        0.0535
@<TRIPOS>BOND
     1     1     2    1
     2     1     3    2
     3     1     6    1
     4     2     7    1
     5     2     8    1
     6     2     9    1
     7     3     4    1
     8     3    10    1
     9     4     5    2
    10     4    11    1
    11     5    12    1
    12     5    13    1
