@<TRIPOS>MOLECULE
IMPHY008321
 80 84 0 0 0
SMALL
GASTEIGER

@<TRIPOS>ATOM
      1 O           7.7289   -0.6141    0.0000 O.3     1  UNL1       -0.3474
      2 O           6.0589    3.4458    0.0000 O.3     1  UNL1       -0.3889
      3 O           4.2576    2.4707    0.0000 O.3     1  UNL1       -0.3769
      4 O           6.8671   -2.1047    0.0000 O.3     1  UNL1       -0.3201
      5 O           6.9291    3.9257    0.0000 O.2     1  UNL1       -0.2882
      6 O           8.7151    4.9285    0.0000 O.2     1  UNL1       -0.4919
      7 O           5.1350   -2.1047    0.0000 O.3     1  UNL1       -0.3404
      8 O           6.8671   -4.1047    0.0000 O.3     1  UNL1       -0.3841
      9 O           5.1350   -5.1047    0.0000 O.3     1  UNL1       -0.3864
     10 O           3.4030   -4.1047    0.0000 O.3     1  UNL1       -0.3865
     11 O           2.5369   -2.6047    0.0000 O.3     1  UNL1       -0.3924
     12 C           6.8912    0.8944    0.0000 C.3     1  UNL1        0.0037
     13 C           6.9109    1.8942    0.0000 C.3     1  UNL1        0.0083
     14 C           5.9869    0.3774    0.0000 C.3     1  UNL1       -0.0233
     15 C           7.7866    2.3770    0.0000 C.3     1  UNL1        0.0428
     16 C           7.7472    0.3774    0.0000 C.3     1  UNL1        0.0679
     17 C           8.6426    1.8601    0.0000 C.3     1  UNL1       -0.0222
     18 C           6.0277    2.4463    0.0000 C.3     1  UNL1        0.0858
     19 C           5.0911    0.9090    0.0000 C.3     1  UNL1       -0.0115
     20 C           8.6229    0.8603    0.0000 C.3     1  UNL1       -0.0219
     21 C           5.1116    1.9504    0.0000 C.3     1  UNL1        0.0873
     22 C           6.0052   -0.6141    0.0000 C.3     1  UNL1        0.0023
     23 C           6.0352    1.4113    0.0000 C.3     1  UNL1       -0.0566
     24 C           6.8671   -1.1047    0.0000 C.3     1  UNL1        0.1629
     25 C           6.9306    2.8940    0.0000 C.3     1  UNL1       -0.0518
     26 C           9.5624    2.3489    0.0000 C.3     1  UNL1       -0.0271
     27 C           7.7910    3.4186    0.0000 C.2     1  UNL1        0.2034
     28 C           4.2173    0.4228    0.0000 C.3     1  UNL1       -0.0597
     29 C           8.6993    3.9286    0.0000 C.2     1  UNL1        0.1590
     30 C           9.5910    3.3901    0.0000 C.2     1  UNL1       -0.0385
     31 C           3.3801    1.9912    0.0000 C.3     1  UNL1        0.0369
     32 C           6.0010   -2.6047    0.0000 C.3     1  UNL1        0.1908
     33 C           6.0010   -3.6047    0.0000 C.3     1  UNL1        0.1342
     34 C           5.1350   -4.1047    0.0000 C.3     1  UNL1        0.1141
     35 C           9.5890    5.4147    0.0000 C.3     1  UNL1        0.0789
     36 C           4.2690   -2.6047    0.0000 C.3     1  UNL1        0.1130
     37 C           4.2690   -3.6047    0.0000 C.3     1  UNL1        0.1119
     38 C           3.4030   -2.1047    0.0000 C.3     1  UNL1        0.0730
     39 H           7.6385    1.4548    0.0000 H       1  UNL1        0.0342
     40 H           5.2522   -0.0500    0.0000 H       1  UNL1        0.0312
     41 H           8.4751   -0.0616    0.0000 H       1  UNL1        0.0603
     42 H           9.3668    1.4150    0.0000 H       1  UNL1        0.0314
     43 H           6.5746    2.7383    0.0000 H       1  UNL1        0.0622
     44 H           4.5598    1.2285    0.0000 H       1  UNL1        0.0327
     45 H           8.8235    0.2736    0.0000 H       1  UNL1        0.0293
     46 H           9.2355    0.9559    0.0000 H       1  UNL1        0.0293
     47 H           5.1274    2.5702    0.0000 H       1  UNL1        0.0624
     48 H           5.3931   -0.5152    0.0000 H       1  UNL1        0.0317
     49 H           5.7991   -1.1989    0.0000 H       1  UNL1        0.0317
     50 H           6.3557    1.9420    0.0000 H       1  UNL1        0.0236
     51 H           5.5045    1.7318    0.0000 H       1  UNL1        0.0236
     52 H           5.7147    0.8806    0.0000 H       1  UNL1        0.0236
     53 H           6.3311   -1.4164    0.0000 H       1  UNL1        0.0911
     54 H           7.2511    3.4247    0.0000 H       1  UNL1        0.0239
     55 H           6.3999    3.2145    0.0000 H       1  UNL1        0.0239
     56 H           6.6101    2.3632    0.0000 H       1  UNL1        0.0239
     57 H           9.7554    1.7597    0.0000 H       1  UNL1        0.0312
     58 H          10.1759    2.4382    0.0000 H       1  UNL1        0.0312
     59 H           3.9158    0.9645    0.0000 H       1  UNL1        0.0233
     60 H           3.6755    0.1213    0.0000 H       1  UNL1        0.0233
     61 H           4.5188   -0.1190    0.0000 H       1  UNL1        0.0233
     62 H           5.5319    3.7725    0.0000 H       1  UNL1        0.2099
     63 H          10.1350    3.6874    0.0000 H       1  UNL1        0.0609
     64 H           3.0828    2.5353    0.0000 H       1  UNL1        0.0524
     65 H           2.8360    1.6939    0.0000 H       1  UNL1        0.0524
     66 H           3.6774    1.4471    0.0000 H       1  UNL1        0.0524
     67 H           6.0010   -1.9847    0.0000 H       1  UNL1        0.0938
     68 H           6.5380   -3.2947    0.0000 H       1  UNL1        0.0671
     69 H           5.6720   -4.4147    0.0000 H       1  UNL1        0.0648
     70 H           9.8904    4.8729    0.0000 H       1  UNL1        0.0660
     71 H          10.1308    5.7162    0.0000 H       1  UNL1        0.0660
     72 H           9.2875    5.9565    0.0000 H       1  UNL1        0.0660
     73 H           4.2690   -1.9847    0.0000 H       1  UNL1        0.0647
     74 H           3.7320   -3.2947    0.0000 H       1  UNL1        0.0647
     75 H           6.8671   -4.7247    0.0000 H       1  UNL1        0.2101
     76 H           3.8015   -1.6298    0.0000 H       1  UNL1        0.0584
     77 H           3.0044   -1.6298    0.0000 H       1  UNL1        0.0584
     78 H           4.5981   -5.4147    0.0000 H       1  UNL1        0.2100
     79 H           3.4030   -4.7247    0.0000 H       1  UNL1        0.2100
     80 H           2.0000   -2.2947    0.0000 H       1  UNL1        0.2095
@<TRIPOS>BOND
     1     1    16    1
     2     1    24    1
     3    18     2    1
     4     2    62    1
     5    21     3    1
     6     3    31    1
     7    24     4    1
     8    32     4    1
     9     5    27    2
    10     6    29    1
    11     6    35    1
    12     7    32    1
    13     7    36    1
    14    33     8    1
    15     8    75    1
    16    34     9    1
    17     9    78    1
    18    37    10    1
    19    10    79    1
    20    11    38    1
    21    11    80    1
    22    12    13    1
    23    12    14    1
    24    12    16    1
    25    12    23    1
    26    13    15    1
    27    13    18    1
    28    13    39    1
    29    14    19    1
    30    14    22    1
    31    14    40    1
    32    15    17    1
    33    15    25    1
    34    15    27    1
    35    16    20    1
    36    16    41    1
    37    17    20    1
    38    17    26    1
    39    17    42    1
    40    18    21    1
    41    18    43    1
    42    19    21    1
    43    19    28    1
    44    19    44    1
    45    20    45    1
    46    20    46    1
    47    21    47    1
    48    22    24    1
    49    22    48    1
    50    22    49    1
    51    23    50    1
    52    23    51    1
    53    23    52    1
    54    24    53    1
    55    25    54    1
    56    25    55    1
    57    25    56    1
    58    26    30    1
    59    26    57    1
    60    26    58    1
    61    27    29    1
    62    28    59    1
    63    28    60    1
    64    28    61    1
    65    29    30    2
    66    30    63    1
    67    31    64    1
    68    31    65    1
    69    31    66    1
    70    32    33    1
    71    32    67    1
    72    33    34    1
    73    33    68    1
    74    34    37    1
    75    34    69    1
    76    35    70    1
    77    35    71    1
    78    35    72    1
    79    36    37    1
    80    36    38    1
    81    36    73    1
    82    37    74    1
    83    38    76    1
    84    38    77    1
