@<TRIPOS>MOLECULE
IMPHY000210
 78 85 0 0 0
SMALL
GASTEIGER

@<TRIPOS>ATOM
      1 O           6.3961    0.8479    0.0000 O.3     1  UNL1       -0.4832
      2 O           4.6423    3.8793    0.0000 O.3     1  UNL1       -0.5063
      3 O           4.5301   -1.3842    0.0000 O.3     1  UNL1       -0.5062
      4 O           7.5301    0.3479    0.0000 O.3     1  UNL1       -0.5062
      5 O           8.2890    4.8813    0.0000 O.2     1  UNL1       -0.4547
      6 O           8.5188   -3.2193    0.0000 O.2     1  UNL1       -0.4547
      7 O          11.2683    6.8111    0.0000 O.3     1  UNL1       -0.5066
      8 O          10.4601   -6.1911    0.0000 O.3     1  UNL1       -0.5066
      9 C           4.6641    0.8479    0.0000 C.3     1  UNL1        0.0164
     10 C           3.7702    0.3132    0.0000 C.3     1  UNL1       -0.0239
     11 C           4.6641    1.8479    0.0000 C.3     1  UNL1        0.0164
     12 C           5.5301    0.3479    0.0000 C.3     1  UNL1        0.1361
     13 C           2.8641    0.8271    0.0000 C.3     1  UNL1       -0.0264
     14 C           3.7702    2.3825    0.0000 C.2     1  UNL1       -0.0770
     15 C           2.8641    1.8687    0.0000 C.2     1  UNL1       -0.0754
     16 C           5.5301    2.3479    0.0000 C.ar    1  UNL1        0.0429
     17 C           3.2802   -0.5585    0.0000 C.3     1  UNL1       -0.0591
     18 C           4.2801   -0.5470    0.0000 C.3     1  UNL1       -0.0591
     19 C           6.3961    1.8479    0.0000 C.ar    1  UNL1        0.1293
     20 C           6.0302   -0.5181    0.0000 C.ar    1  UNL1        0.0757
     21 C           2.0000    2.3720    0.0000 C.3     1  UNL1       -0.0438
     22 C           5.5141    3.3894    0.0000 C.ar    1  UNL1        0.1247
     23 C           7.3062    2.3547    0.0000 C.ar    1  UNL1       -0.0087
     24 C           5.5302   -1.3842    0.0000 C.ar    1  UNL1        0.1277
     25 C           7.0301   -0.5181    0.0000 C.ar    1  UNL1        0.1277
     26 C           6.4121    3.9171    0.0000 C.ar    1  UNL1       -0.0090
     27 C           7.3142    3.3963    0.0000 C.ar    1  UNL1        0.0242
     28 C           6.0302   -2.2502    0.0000 C.ar    1  UNL1       -0.0089
     29 C           7.5301   -1.3842    0.0000 C.ar    1  UNL1       -0.0089
     30 C           7.0302   -2.2501    0.0000 C.ar    1  UNL1        0.0242
     31 C           8.1821    3.8930    0.0000 C.ar    1  UNL1        0.1365
     32 C           7.5302   -3.1162    0.0000 C.ar    1  UNL1        0.1365
     33 C           9.0884    3.4844    0.0000 C.ar    1  UNL1       -0.0081
     34 C           9.7583    4.2188    0.0000 C.ar    1  UNL1        0.0210
     35 C           9.2616    5.0868    0.0000 C.ar    1  UNL1        0.1391
     36 C           7.1251   -4.0240    0.0000 C.ar    1  UNL1       -0.0081
     37 C           7.8621   -4.6910    0.0000 C.ar    1  UNL1        0.0210
     38 C           8.7280   -4.1911    0.0000 C.ar    1  UNL1        0.1391
     39 C          10.7583    4.2150    0.0000 C.ar    1  UNL1       -0.0475
     40 C           9.7649    5.9508    0.0000 C.ar    1  UNL1        0.0227
     41 C          11.2616    5.0790    0.0000 C.ar    1  UNL1       -0.0194
     42 C          10.7649    5.9470    0.0000 C.ar    1  UNL1        0.1204
     43 C           7.8621   -5.6911    0.0000 C.ar    1  UNL1       -0.0475
     44 C           9.5941   -4.6911    0.0000 C.ar    1  UNL1        0.0227
     45 C           8.7281   -6.1910    0.0000 C.ar    1  UNL1       -0.0194
     46 C           9.5941   -5.6911    0.0000 C.ar    1  UNL1        0.1204
     47 H           4.6706   -0.0021    0.0000 H       1  UNL1        0.0354
     48 H           4.6706    2.6979    0.0000 H       1  UNL1        0.0398
     49 H           6.3512    0.1279    0.0000 H       1  UNL1        0.0790
     50 H           2.2532    0.9332    0.0000 H       1  UNL1        0.0315
     51 H           2.6550    0.2434    0.0000 H       1  UNL1        0.0315
     52 H           3.7773    3.0025    0.0000 H       1  UNL1        0.0578
     53 H           2.7397   -0.2548    0.0000 H       1  UNL1        0.0235
     54 H           2.9764   -1.0990    0.0000 H       1  UNL1        0.0235
     55 H           3.8207   -0.8623    0.0000 H       1  UNL1        0.0235
     56 H           3.7468   -0.8632    0.0000 H       1  UNL1        0.0235
     57 H           4.5963   -1.0803    0.0000 H       1  UNL1        0.0235
     58 H           4.8134   -0.2308    0.0000 H       1  UNL1        0.0235
     59 H           2.3121    2.9078    0.0000 H       1  UNL1        0.0274
     60 H           1.4643    2.6841    0.0000 H       1  UNL1        0.0274
     61 H           1.6879    1.8363    0.0000 H       1  UNL1        0.0274
     62 H           7.8395    2.0385    0.0000 H       1  UNL1        0.0661
     63 H           6.4097    4.5371    0.0000 H       1  UNL1        0.0661
     64 H           5.7202   -2.7871    0.0000 H       1  UNL1        0.0661
     65 H           8.1501   -1.3842    0.0000 H       1  UNL1        0.0661
     66 H           4.6352    4.4993    0.0000 H       1  UNL1        0.2921
     67 H           4.2201   -1.9211    0.0000 H       1  UNL1        0.2921
     68 H           8.1501    0.3479    0.0000 H       1  UNL1        0.2921
     69 H           9.2139    2.8772    0.0000 H       1  UNL1        0.0661
     70 H           6.5184   -4.1518    0.0000 H       1  UNL1        0.0661
     71 H          11.0662    3.6768    0.0000 H       1  UNL1        0.0626
     72 H           9.4570    6.4890    0.0000 H       1  UNL1        0.0691
     73 H          11.8816    5.0767    0.0000 H       1  UNL1        0.0654
     74 H           7.3252   -6.0011    0.0000 H       1  UNL1        0.0626
     75 H          10.1310   -4.3811    0.0000 H       1  UNL1        0.0691
     76 H           8.7281   -6.8110    0.0000 H       1  UNL1        0.0654
     77 H          11.8883    6.8087    0.0000 H       1  UNL1        0.2921
     78 H          10.4601   -6.8111    0.0000 H       1  UNL1        0.2921
@<TRIPOS>BOND
     1     1    12    1
     2     1    19    1
     3     2    22    1
     4     2    66    1
     5     3    24    1
     6     3    67    1
     7     4    25    1
     8     4    68    1
     9     5    31   ar
    10     5    35   ar
    11     6    32   ar
    12     6    38   ar
    13     7    42    1
    14     7    77    1
    15     8    46    1
    16     8    78    1
    17     9    10    1
    18     9    11    1
    19     9    12    1
    20     9    47    1
    21    10    13    1
    22    10    17    1
    23    10    18    1
    24    11    14    1
    25    11    16    1
    26    11    48    1
    27    12    20    1
    28    12    49    1
    29    13    15    1
    30    13    50    1
    31    13    51    1
    32    14    15    2
    33    14    52    1
    34    15    21    1
    35    16    19   ar
    36    16    22   ar
    37    17    53    1
    38    17    54    1
    39    17    55    1
    40    18    56    1
    41    18    57    1
    42    18    58    1
    43    19    23   ar
    44    20    24   ar
    45    20    25   ar
    46    21    59    1
    47    21    60    1
    48    21    61    1
    49    22    26   ar
    50    23    27   ar
    51    23    62    1
    52    24    28   ar
    53    25    29   ar
    54    26    27   ar
    55    26    63    1
    56    27    31    1
    57    28    30   ar
    58    28    64    1
    59    29    30   ar
    60    29    65    1
    61    30    32    1
    62    31    33   ar
    63    32    36   ar
    64    33    34   ar
    65    33    69    1
    66    34    35   ar
    67    34    39   ar
    68    35    40   ar
    69    36    37   ar
    70    36    70    1
    71    37    38   ar
    72    37    43   ar
    73    38    44   ar
    74    39    41   ar
    75    39    71    1
    76    40    42   ar
    77    40    72    1
    78    41    42   ar
    79    41    73    1
    80    43    45   ar
    81    43    74    1
    82    44    46   ar
    83    44    75    1
    84    45    46   ar
    85    45    76    1
