@<TRIPOS>MOLECULE
IMPHY015746
 32 31 0 0 0
SMALL
GASTEIGER

@<TRIPOS>ATOM
      1 O           5.4641    0.2500    0.0000 O.3     1  UNL1       -0.4644
      2 O           6.3301   -1.2500    0.0000 O.2     1  UNL1       -0.2505
      3 C           2.8660   -0.2500    0.0000 C.3     1  UNL1       -0.0436
      4 C           3.7320    0.2500    0.0000 C.3     1  UNL1       -0.0162
      5 C           7.1962    0.2500    0.0000 C.3     1  UNL1        0.0534
      6 C           4.5981   -0.2500    0.0000 C.3     1  UNL1        0.0927
      7 C           8.0622   -0.2500    0.0000 C.3     1  UNL1       -0.0432
      8 C           2.0000    0.2500    0.0000 C.3     1  UNL1       -0.0626
      9 C           2.8660   -1.2500    0.0000 C.3     1  UNL1       -0.0626
     10 C           6.3301   -0.2500    0.0000 C.2     1  UNL1        0.3099
     11 C           7.1962    1.2500    0.0000 C.3     1  UNL1       -0.0523
     12 C           8.9282    0.2500    0.0000 C.3     1  UNL1       -0.0645
     13 H           2.8660    0.3700    0.0000 H       1  UNL1        0.0297
     14 H           4.1306    0.7249    0.0000 H       1  UNL1        0.0300
     15 H           3.3335    0.7249    0.0000 H       1  UNL1        0.0300
     16 H           6.6592    0.5600    0.0000 H       1  UNL1        0.0410
     17 H           4.1996   -0.7249    0.0000 H       1  UNL1        0.0697
     18 H           4.9966   -0.7249    0.0000 H       1  UNL1        0.0697
     19 H           7.6636   -0.7249    0.0000 H       1  UNL1        0.0270
     20 H           8.4607   -0.7249    0.0000 H       1  UNL1        0.0270
     21 H           2.3100    0.7869    0.0000 H       1  UNL1        0.0232
     22 H           1.4631    0.5600    0.0000 H       1  UNL1        0.0232
     23 H           1.6900   -0.2869    0.0000 H       1  UNL1        0.0232
     24 H           2.2460   -1.2500    0.0000 H       1  UNL1        0.0232
     25 H           2.8660   -1.8700    0.0000 H       1  UNL1        0.0232
     26 H           3.4860   -1.2500    0.0000 H       1  UNL1        0.0232
     27 H           7.8162    1.2500    0.0000 H       1  UNL1        0.0238
     28 H           7.1962    1.8700    0.0000 H       1  UNL1        0.0238
     29 H           6.5762    1.2500    0.0000 H       1  UNL1        0.0238
     30 H           9.2382   -0.2869    0.0000 H       1  UNL1        0.0230
     31 H           9.4651    0.5600    0.0000 H       1  UNL1        0.0230
     32 H           8.6182    0.7869    0.0000 H       1  UNL1        0.0230
@<TRIPOS>BOND
     1     1     6    1
     2     1    10    1
     3     2    10    2
     4     3     4    1
     5     3     8    1
     6     3     9    1
     7     3    13    1
     8     4     6    1
     9     4    14    1
    10     4    15    1
    11     5     7    1
    12     5    10    1
    13     5    11    1
    14     5    16    1
    15     6    17    1
    16     6    18    1
    17     7    12    1
    18     7    19    1
    19     7    20    1
    20     8    21    1
    21     8    22    1
    22     8    23    1
    23     9    24    1
    24     9    25    1
    25     9    26    1
    26    11    27    1
    27    11    28    1
    28    11    29    1
    29    12    30    1
    30    12    31    1
    31    12    32    1
