@<TRIPOS>MOLECULE
IMPHY014136
 48 49 0 0 0
SMALL
GASTEIGER

@<TRIPOS>ATOM
      1 O           4.6802   -0.1005    0.0000 O.3     1  UNL1       -0.4561
      2 O           8.1756    0.1009    0.0000 O.3     1  UNL1       -0.4569
      3 O           3.0329   -0.6358    0.0000 O.2     1  UNL1       -0.2453
      4 O           7.8184    1.7957    0.0000 O.2     1  UNL1       -0.2453
      5 N           5.9402   -2.3606    0.0000 N.3     1  UNL1       -0.2886
      6 C           5.9402   -1.3606    0.0000 C.3     1  UNL1        0.0723
      7 C           4.9892   -1.0516    0.0000 C.3     1  UNL1        0.1239
      8 C           4.4014   -1.8606    0.0000 C.3     1  UNL1       -0.0010
      9 C           4.9892   -2.6696    0.0000 C.3     1  UNL1        0.0033
     10 C           6.8865   -1.0559    0.0000 C.2     1  UNL1       -0.0147
     11 C           6.8865   -2.6653    0.0000 C.3     1  UNL1        0.0182
     12 C           7.4701   -1.8606    0.0000 C.2     1  UNL1       -0.0660
     13 C           7.1971   -0.1053    0.0000 C.3     1  UNL1        0.1155
     14 C           3.7020    0.1074    0.0000 C.2     1  UNL1        0.3349
     15 C           3.3930    1.0584    0.0000 C.2     1  UNL1        0.0293
     16 C           8.4863    1.0514    0.0000 C.2     1  UNL1        0.3349
     17 C           4.0621    1.8016    0.0000 C.3     1  UNL1       -0.0333
     18 C           2.4149    1.2664    0.0000 C.2     1  UNL1       -0.0774
     19 C           9.4648    1.2576    0.0000 C.2     1  UNL1        0.0293
     20 C           2.1058    2.2174    0.0000 C.3     1  UNL1       -0.0461
     21 C          10.1326    0.5133    0.0000 C.3     1  UNL1       -0.0333
     22 C           9.7755    2.2081    0.0000 C.2     1  UNL1       -0.0774
     23 C          10.7540    2.4144    0.0000 C.3     1  UNL1       -0.0461
     24 H           5.9414   -0.5106    0.0000 H       1  UNL1        0.0547
     25 H           4.3768   -0.9546    0.0000 H       1  UNL1        0.0753
     26 H           3.9406   -1.4457    0.0000 H       1  UNL1        0.0314
     27 H           3.9406   -2.2755    0.0000 H       1  UNL1        0.0314
     28 H           4.4522   -2.9796    0.0000 H       1  UNL1        0.0428
     29 H           5.2414   -3.2360    0.0000 H       1  UNL1        0.0428
     30 H           6.6354   -3.2322    0.0000 H       1  UNL1        0.0470
     31 H           7.4238   -2.9745    0.0000 H       1  UNL1        0.0470
     32 H           8.0901   -1.8606    0.0000 H       1  UNL1        0.0586
     33 H           7.1766    0.5143    0.0000 H       1  UNL1        0.0746
     34 H           6.5833   -0.0180    0.0000 H       1  UNL1        0.0746
     35 H           4.5229    1.3867    0.0000 H       1  UNL1        0.0280
     36 H           4.4770    2.2624    0.0000 H       1  UNL1        0.0280
     37 H           3.6014    2.2165    0.0000 H       1  UNL1        0.0280
     38 H           2.0000    0.8056    0.0000 H       1  UNL1        0.0574
     39 H           2.6955    2.4090    0.0000 H       1  UNL1        0.0272
     40 H           1.9142    2.8071    0.0000 H       1  UNL1        0.0272
     41 H           1.5162    2.0258    0.0000 H       1  UNL1        0.0272
     42 H           9.6712    0.0993    0.0000 H       1  UNL1        0.0280
     43 H          10.5467    0.0519    0.0000 H       1  UNL1        0.0280
     44 H          10.5941    0.9274    0.0000 H       1  UNL1        0.0280
     45 H           9.3614    2.6696    0.0000 H       1  UNL1        0.0574
     46 H          10.8818    1.8077    0.0000 H       1  UNL1        0.0272
     47 H          11.3606    2.5422    0.0000 H       1  UNL1        0.0272
     48 H          10.6261    3.0210    0.0000 H       1  UNL1        0.0272
@<TRIPOS>BOND
     1     7     1    1
     2     1    14    1
     3     2    13    1
     4     2    16    1
     5     3    14    2
     6     4    16    2
     7     5     6    1
     8     5     9    1
     9     5    11    1
    10     6     7    1
    11     6    10    1
    12     6    24    1
    13     7     8    1
    14     7    25    1
    15     8     9    1
    16     8    26    1
    17     8    27    1
    18     9    28    1
    19     9    29    1
    20    10    12    2
    21    10    13    1
    22    11    12    1
    23    11    30    1
    24    11    31    1
    25    12    32    1
    26    13    33    1
    27    13    34    1
    28    14    15    1
    29    15    17    1
    30    15    18    2
    31    16    19    1
    32    17    35    1
    33    17    36    1
    34    17    37    1
    35    18    20    1
    36    18    38    1
    37    19    21    1
    38    19    22    2
    39    20    39    1
    40    20    40    1
    41    20    41    1
    42    21    42    1
    43    21    43    1
    44    21    44    1
    45    22    23    1
    46    22    45    1
    47    23    46    1
    48    23    47    1
    49    23    48    1
