@<TRIPOS>MOLECULE
IMPHY001924
 29 30 0 0 0
SMALL
GASTEIGER

@<TRIPOS>ATOM
      1 S           6.0927    2.3873    0.0000 S.3     1  UNL1       -0.1062
      2 S           7.1084    0.9843    0.0000 S.2     1  UNL1       -0.0282
      3 O           4.3709    0.1767    0.0000 O.3     1  UNL1       -0.3734
      4 O           6.2619   -1.5796    0.0000 O.2     1  UNL1       -0.2719
      5 N           4.6783   -2.3844    0.0000 N.am    1  UNL1       -0.2825
      6 N           5.3855    0.8062    0.0000 N.am    1  UNL1       -0.3294
      7 C           4.6783   -0.7749    0.0000 C.3     1  UNL1        0.1838
      8 C           3.7320   -1.0796    0.0000 C.ar    1  UNL1        0.0155
      9 C           5.4883   -0.1885    0.0000 C.3     1  UNL1        0.0518
     10 C           3.7320   -2.0796    0.0000 C.ar    1  UNL1        0.0399
     11 C           5.2619   -1.5796    0.0000 C.2     1  UNL1        0.2551
     12 C           2.8660   -0.5796    0.0000 C.ar    1  UNL1       -0.0535
     13 C           2.8660   -2.5796    0.0000 C.ar    1  UNL1       -0.0401
     14 C           2.0000   -1.0796    0.0000 C.ar    1  UNL1       -0.0613
     15 C           2.0000   -2.0796    0.0000 C.ar    1  UNL1       -0.0600
     16 C           6.1955    1.3926    0.0000 C.2     1  UNL1        0.1064
     17 C           6.9028    2.9737    0.0000 C.3     1  UNL1       -0.0118
     18 H           5.7591   -0.7462    0.0000 H       1  UNL1        0.0498
     19 H           6.0846   -0.0186    0.0000 H       1  UNL1        0.0498
     20 H           4.8709   -2.9737    0.0000 H       1  UNL1        0.1549
     21 H           2.8660    0.0404    0.0000 H       1  UNL1        0.0622
     22 H           2.8660   -3.1996    0.0000 H       1  UNL1        0.0636
     23 H           3.7647    0.3067    0.0000 H       1  UNL1        0.2113
     24 H           4.8195    1.0594    0.0000 H       1  UNL1        0.1471
     25 H           1.4631   -0.7696    0.0000 H       1  UNL1        0.0618
     26 H           1.4631   -2.3896    0.0000 H       1  UNL1        0.0618
     27 H           7.2663    2.4714    0.0000 H       1  UNL1        0.0344
     28 H           7.4050    3.3372    0.0000 H       1  UNL1        0.0344
     29 H           6.5392    3.4759    0.0000 H       1  UNL1        0.0344
@<TRIPOS>BOND
     1     1    16    1
     2     1    17    1
     3     2    16    2
     4     3     7    1
     5     3    23    1
     6     4    11    2
     7     5    10    1
     8     5    11   am
     9     5    20    1
    10     6     9    1
    11     6    16    1
    12     6    24    1
    13     7     8    1
    14     7     9    1
    15     7    11    1
    16     8    10   ar
    17     8    12   ar
    18     9    18    1
    19     9    19    1
    20    10    13   ar
    21    12    14   ar
    22    12    21    1
    23    13    15   ar
    24    13    22    1
    25    14    15   ar
    26    14    25    1
    27    15    26    1
    28    17    27    1
    29    17    28    1
    30    17    29    1
