@<TRIPOS>MOLECULE
IMPHY013458
 60 65 0 0 0
SMALL
GASTEIGER

@<TRIPOS>ATOM
      1 O           6.0010   -1.9643    0.0000 O.3     1  UNL1       -0.4828
      2 O           6.0290    2.0010    0.0000 O.2     1  UNL1       -0.4537
      3 O           8.5991   -0.4643    0.0000 O.2     1  UNL1       -0.2917
      4 O           2.5369    1.0357    0.0000 O.3     1  UNL1       -0.5062
      5 O           9.5033   -1.9612    0.0000 O.3     1  UNL1       -0.5058
      6 O           2.5369    2.0357    0.0000 O.3     1  UNL1       -0.5059
      7 O           4.2690    5.0357    0.0000 O.3     1  UNL1       -0.5058
      8 O           7.7452   -5.0336    0.0000 O.3     1  UNL1       -0.5065
      9 O           6.0174    5.0702    0.0000 O.2     1  UNL1       -0.2869
     10 O          10.3914    0.5015    0.0000 O.3     1  UNL1       -0.5068
     11 C           6.0010   -0.9643    0.0000 C.3     1  UNL1        0.1322
     12 C           6.8671   -0.4643    0.0000 C.3     1  UNL1        0.0520
     13 C           5.1350   -0.4643    0.0000 C.ar    1  UNL1       -0.0061
     14 C           4.2690    1.0357    0.0000 C.ar    1  UNL1        0.0310
     15 C           7.7331   -0.9643    0.0000 C.2     1  UNL1        0.1740
     16 C           5.1350    0.5357    0.0000 C.ar    1  UNL1       -0.0436
     17 C           7.7331   -1.9643    0.0000 C.ar    1  UNL1        0.1007
     18 C           6.8671   -2.4643    0.0000 C.ar    1  UNL1        0.1389
     19 C           4.2690    2.0357    0.0000 C.ar    1  UNL1        0.0702
     20 C           4.2690   -0.9643    0.0000 C.ar    1  UNL1       -0.0516
     21 C           5.1350    2.5357    0.0000 C.ar    1  UNL1        0.1541
     22 C           3.4030    0.5357    0.0000 C.ar    1  UNL1        0.1248
     23 C           3.4030   -0.4643    0.0000 C.ar    1  UNL1       -0.0192
     24 C           5.1350    3.5357    0.0000 C.ar    1  UNL1        0.1061
     25 C           8.6431   -2.4712    0.0000 C.ar    1  UNL1        0.1343
     26 C           3.4030    2.5357    0.0000 C.ar    1  UNL1        0.1317
     27 C           6.8510   -3.5058    0.0000 C.ar    1  UNL1        0.0225
     28 C           4.2690    4.0357    0.0000 C.ar    1  UNL1        0.1347
     29 C           3.4030    3.5357    0.0000 C.ar    1  UNL1        0.0229
     30 C           7.7490   -4.0336    0.0000 C.ar    1  UNL1        0.1238
     31 C           8.6511   -3.5128    0.0000 C.ar    1  UNL1        0.0222
     32 C           6.0290    4.0703    0.0000 C.ar    1  UNL1        0.1966
     33 C           6.9350    2.5148    0.0000 C.ar    1  UNL1        0.1393
     34 C           6.9350    3.5565    0.0000 C.ar    1  UNL1        0.0288
     35 C           7.7991    2.0115    0.0000 C.ar    1  UNL1        0.0176
     36 C           8.6671    2.5082    0.0000 C.ar    1  UNL1       -0.0476
     37 C           7.7953    1.0115    0.0000 C.ar    1  UNL1       -0.0476
     38 C           9.5312    2.0048    0.0000 C.ar    1  UNL1       -0.0195
     39 C           8.6594    0.5082    0.0000 C.ar    1  UNL1       -0.0195
     40 C           9.5273    1.0048    0.0000 C.ar    1  UNL1        0.1169
     41 H           5.4641   -1.2743    0.0000 H       1  UNL1        0.0789
     42 H           7.2656    0.0106    0.0000 H       1  UNL1        0.0385
     43 H           6.4685    0.0106    0.0000 H       1  UNL1        0.0385
     44 H           5.6720    0.8457    0.0000 H       1  UNL1        0.0629
     45 H           4.2690   -1.5843    0.0000 H       1  UNL1        0.0623
     46 H           2.8660   -0.7743    0.0000 H       1  UNL1        0.0654
     47 H           6.3105   -3.8096    0.0000 H       1  UNL1        0.0691
     48 H           2.8660    3.8457    0.0000 H       1  UNL1        0.0691
     49 H           9.1892   -3.8207    0.0000 H       1  UNL1        0.0691
     50 H           7.4708    3.8685    0.0000 H       1  UNL1        0.0693
     51 H           2.0000    0.7257    0.0000 H       1  UNL1        0.2922
     52 H          10.0438   -2.2650    0.0000 H       1  UNL1        0.2922
     53 H           2.0000    2.3457    0.0000 H       1  UNL1        0.2922
     54 H           8.6694    3.1282    0.0000 H       1  UNL1        0.0626
     55 H           7.2571    0.7036    0.0000 H       1  UNL1        0.0626
     56 H           3.7320    5.3457    0.0000 H       1  UNL1        0.2922
     57 H           8.2809   -5.3457    0.0000 H       1  UNL1        0.2921
     58 H          10.0693    2.3128    0.0000 H       1  UNL1        0.0654
     59 H           8.6570   -0.1118    0.0000 H       1  UNL1        0.0654
     60 H          10.9295    0.8094    0.0000 H       1  UNL1        0.2921
@<TRIPOS>BOND
     1     1    11    1
     2     1    18    1
     3     2    21   ar
     4     2    33   ar
     5     3    15    2
     6     4    22    1
     7     4    51    1
     8     5    25    1
     9     5    52    1
    10     6    26    1
    11     6    53    1
    12     7    28    1
    13     7    56    1
    14     8    30    1
    15     8    57    1
    16     9    32    2
    17    10    40    1
    18    10    60    1
    19    11    12    1
    20    11    13    1
    21    11    41    1
    22    12    15    1
    23    12    42    1
    24    12    43    1
    25    13    16   ar
    26    13    20   ar
    27    14    16   ar
    28    14    19    1
    29    14    22   ar
    30    15    17    1
    31    16    44    1
    32    17    18   ar
    33    17    25   ar
    34    18    27   ar
    35    19    21   ar
    36    19    26   ar
    37    20    23   ar
    38    20    45    1
    39    21    24   ar
    40    22    23   ar
    41    23    46    1
    42    24    28   ar
    43    24    32   ar
    44    25    31   ar
    45    26    29   ar
    46    27    30   ar
    47    27    47    1
    48    28    29   ar
    49    29    48    1
    50    30    31   ar
    51    31    49    1
    52    32    34   ar
    53    33    34   ar
    54    33    35    1
    55    34    50    1
    56    35    36   ar
    57    35    37   ar
    58    36    38   ar
    59    36    54    1
    60    37    39   ar
    61    37    55    1
    62    38    40   ar
    63    38    58    1
    64    39    40   ar
    65    39    59    1
