@<TRIPOS>MOLECULE
IMPHY006647
 182 192 0 0 0
SMALL
GASTEIGER

@<TRIPOS>ATOM
      1 O           6.3844    3.5036    0.0000 O.3     1  UNL1       -0.3476
      2 O           4.6246    3.5451    0.0000 O.3     1  UNL1       -0.3409
      3 O           4.1233    0.6059    0.0000 O.3     1  UNL1       -0.3883
      4 O          11.8874   -1.7500    0.0000 O.3     1  UNL1       -0.3449
      5 O          12.7534   -0.2500    0.0000 O.3     1  UNL1       -0.3461
      6 O          13.6194   -2.7500    0.0000 O.3     1  UNL1       -0.3378
      7 O          15.3515   -1.7500    0.0000 O.3     1  UNL1       -0.3400
      8 O          15.3515    0.2500    0.0000 O.3     1  UNL1       -0.3868
      9 O          11.8874   -2.7500    0.0000 O.3     1  UNL1       -0.3431
     10 O          16.2175   -0.2500    0.0000 O.3     1  UNL1       -0.3405
     11 O          13.6194   -4.7500    0.0000 O.3     1  UNL1       -0.3841
     12 O          17.0835   -2.7500    0.0000 O.3     1  UNL1       -0.3378
     13 O          11.8874   -5.7500    0.0000 O.3     1  UNL1       -0.3864
     14 O          10.1553   -4.7500    0.0000 O.3     1  UNL1       -0.3866
     15 O          18.8156   -1.7500    0.0000 O.3     1  UNL1       -0.3864
     16 O          18.8156    0.2500    0.0000 O.3     1  UNL1       -0.3865
     17 O          16.2175    1.7500    0.0000 O.3     1  UNL1       -0.3460
     18 O          18.8156   -2.7500    0.0000 O.3     1  UNL1       -0.3405
     19 O          17.0835   -4.7500    0.0000 O.3     1  UNL1       -0.3841
     20 O          18.8156   -5.7500    0.0000 O.3     1  UNL1       -0.3864
     21 O          17.0835    3.2500    0.0000 O.3     1  UNL1       -0.3405
     22 O          20.5476   -4.7500    0.0000 O.3     1  UNL1       -0.3865
     23 O          14.4854    2.7500    0.0000 O.3     1  UNL1       -0.3841
     24 O          21.4136   -3.2500    0.0000 O.3     1  UNL1       -0.3924
     25 O          14.4854    4.7500    0.0000 O.3     1  UNL1       -0.3864
     26 O          16.2175    5.7500    0.0000 O.3     1  UNL1       -0.3865
     27 O          17.9495    5.7500    0.0000 O.3     1  UNL1       -0.3924
     28 C           7.2447    2.0003    0.0000 C.3     1  UNL1        0.0081
     29 C           8.1527    1.4900    0.0000 C.3     1  UNL1       -0.0206
     30 C           6.3767    1.5036    0.0000 C.3     1  UNL1       -0.0223
     31 C           8.1567    0.4483    0.0000 C.3     1  UNL1       -0.0294
     32 C           5.5126    2.0070    0.0000 C.3     1  UNL1        0.0452
     33 C           5.5165    3.0070    0.0000 C.3     1  UNL1        0.1770
     34 C           6.1964    2.1874    0.0000 C.3     1  UNL1        0.0103
     35 C           9.0900   -0.1050    0.0000 C.3     1  UNL1       -0.0252
     36 C           7.2485    3.0003    0.0000 C.3     1  UNL1        0.0575
     37 C           6.3567    0.4622    0.0000 C.3     1  UNL1       -0.0488
     38 C           9.0817    2.0505    0.0000 C.3     1  UNL1       -0.0465
     39 C          10.0318    0.4339    0.0000 C.3     1  UNL1       -0.0278
     40 C           7.2527   -0.0690    0.0000 C.3     1  UNL1       -0.0489
     41 C           4.6166    1.4758    0.0000 C.3     1  UNL1        0.0739
     42 C          10.0276    1.5189    0.0000 C.3     1  UNL1       -0.0486
     43 C           8.1489    2.4900    0.0000 C.3     1  UNL1       -0.0587
     44 C          11.0170   -0.1198    0.0000 C.3     1  UNL1       -0.0052
     45 C           9.0683   -1.2349    0.0000 C.3     1  UNL1       -0.0447
     46 C           8.2221   -0.6016    0.0000 C.3     1  UNL1       -0.0590
     47 C           3.7126    1.9931    0.0000 C.3     1  UNL1        0.0063
     48 C          11.0213   -1.2500    0.0000 C.3     1  UNL1        0.0672
     49 C          10.0404   -1.8113    0.0000 C.3     1  UNL1       -0.0255
     50 C           3.7166    3.0347    0.0000 C.3     1  UNL1        0.0829
     51 C           5.1233    0.6136    0.0000 C.3     1  UNL1       -0.0355
     52 C          11.5103    0.7500    0.0000 C.3     1  UNL1       -0.0572
     53 C          12.0169   -0.1121    0.0000 C.3     1  UNL1       -0.0572
     54 C           2.8544    3.5414    0.0000 C.2     1  UNL1       -0.0567
     55 C          12.7534   -1.2500    0.0000 C.3     1  UNL1        0.1882
     56 C           2.8622    4.5414    0.0000 C.2     1  UNL1       -0.0772
     57 C          13.6194   -1.7500    0.0000 C.3     1  UNL1        0.1410
     58 C           2.0000    5.0480    0.0000 C.3     1  UNL1       -0.0440
     59 C           3.7320    5.0347    0.0000 C.3     1  UNL1       -0.0440
     60 C          14.4854   -1.2500    0.0000 C.3     1  UNL1        0.1206
     61 C          13.6194    0.2500    0.0000 C.3     1  UNL1        0.0792
     62 C          14.4854   -0.2500    0.0000 C.3     1  UNL1        0.1073
     63 C          12.7534   -3.2500    0.0000 C.3     1  UNL1        0.1884
     64 C          16.2175   -1.2500    0.0000 C.3     1  UNL1        0.1888
     65 C          12.7534   -4.2500    0.0000 C.3     1  UNL1        0.1341
     66 C          17.0835   -1.7500    0.0000 C.3     1  UNL1        0.1406
     67 C          11.8874   -4.7500    0.0000 C.3     1  UNL1        0.1140
     68 C          11.0213   -3.2500    0.0000 C.3     1  UNL1        0.0873
     69 C          11.0213   -4.2500    0.0000 C.3     1  UNL1        0.1095
     70 C          17.9495   -1.2500    0.0000 C.3     1  UNL1        0.1144
     71 C          17.0835    0.2500    0.0000 C.3     1  UNL1        0.1134
     72 C          17.9495   -0.2500    0.0000 C.3     1  UNL1        0.1119
     73 C          10.1553   -2.7500    0.0000 C.3     1  UNL1       -0.0361
     74 C          17.0835    1.2500    0.0000 C.3     1  UNL1        0.0796
     75 C          17.9495   -3.2500    0.0000 C.3     1  UNL1        0.1885
     76 C          17.9495   -4.2500    0.0000 C.3     1  UNL1        0.1341
     77 C          18.8156   -4.7500    0.0000 C.3     1  UNL1        0.1141
     78 C          19.6816   -3.2500    0.0000 C.3     1  UNL1        0.1130
     79 C          19.6816   -4.2500    0.0000 C.3     1  UNL1        0.1119
     80 C          16.2175    2.7500    0.0000 C.3     1  UNL1        0.1880
     81 C          15.3515    3.2500    0.0000 C.3     1  UNL1        0.1341
     82 C          20.5476   -2.7500    0.0000 C.3     1  UNL1        0.0730
     83 C          15.3515    4.2500    0.0000 C.3     1  UNL1        0.1141
     84 C          17.0835    4.2500    0.0000 C.3     1  UNL1        0.1130
     85 C          16.2175    4.7500    0.0000 C.3     1  UNL1        0.1119
     86 C          17.9495    4.7500    0.0000 C.3     1  UNL1        0.0730
     87 H           5.8278    0.8547    0.0000 H       1  UNL1        0.0312
     88 H           8.1502   -0.4016    0.0000 H       1  UNL1        0.0312
     89 H           5.2190    1.2093    0.0000 H       1  UNL1        0.0384
     90 H           5.6260    1.9443    0.0000 H       1  UNL1        0.0323
     91 H           6.2663    1.5713    0.0000 H       1  UNL1        0.0323
     92 H           7.8587    2.8903    0.0000 H       1  UNL1        0.0567
     93 H           7.4628    3.5821    0.0000 H       1  UNL1        0.0567
     94 H           5.7480    0.5801    0.0000 H       1  UNL1        0.0268
     95 H           6.1364   -0.1173    0.0000 H       1  UNL1        0.0268
     96 H           9.4735    2.5310    0.0000 H       1  UNL1        0.0271
     97 H           8.6753    2.5187    0.0000 H       1  UNL1        0.0271
     98 H          10.7646    0.8645    0.0000 H       1  UNL1        0.0312
     99 H           6.8499   -0.5403    0.0000 H       1  UNL1        0.0268
    100 H           7.6481   -0.5465    0.0000 H       1  UNL1        0.0268
    101 H          10.6388    1.4151    0.0000 H       1  UNL1        0.0268
    102 H          10.2344    2.1034    0.0000 H       1  UNL1        0.0268
    103 H           8.7689    2.4923    0.0000 H       1  UNL1        0.0235
    104 H           8.1465    3.1100    0.0000 H       1  UNL1        0.0235
    105 H           7.5289    2.4876    0.0000 H       1  UNL1        0.0235
    106 H           8.4596   -1.1171    0.0000 H       1  UNL1        0.0271
    107 H           8.8480   -1.8145    0.0000 H       1  UNL1        0.0271
    108 H           7.9142   -0.0635    0.0000 H       1  UNL1        0.0235
    109 H           7.6840   -0.9096    0.0000 H       1  UNL1        0.0235
    110 H           8.5300   -1.1398    0.0000 H       1  UNL1        0.0235
    111 H           3.1021    2.1016    0.0000 H       1  UNL1        0.0321
    112 H           3.5013    1.4102    0.0000 H       1  UNL1        0.0321
    113 H          11.5577   -0.9390    0.0000 H       1  UNL1        0.0602
    114 H           9.6376   -2.2826    0.0000 H       1  UNL1        0.0290
    115 H          10.4359   -2.2888    0.0000 H       1  UNL1        0.0290
    116 H           3.7226    3.6547    0.0000 H       1  UNL1        0.0642
    117 H           4.5888    0.2995    0.0000 H       1  UNL1        0.0257
    118 H           5.4374    0.0791    0.0000 H       1  UNL1        0.0257
    119 H           5.6578    0.9278    0.0000 H       1  UNL1        0.0257
    120 H          12.0496    0.4442    0.0000 H       1  UNL1        0.0236
    121 H          11.8161    1.2893    0.0000 H       1  UNL1        0.0236
    122 H          10.9710    1.0559    0.0000 H       1  UNL1        0.0236
    123 H          12.0217   -0.7321    0.0000 H       1  UNL1        0.0236
    124 H          12.6369   -0.1074    0.0000 H       1  UNL1        0.0236
    125 H          12.0122    0.5078    0.0000 H       1  UNL1        0.0236
    126 H           3.5034    0.6011    0.0000 H       1  UNL1        0.2102
    127 H           2.3151    3.2355    0.0000 H       1  UNL1        0.0597
    128 H          12.7534   -1.8700    0.0000 H       1  UNL1        0.0937
    129 H          14.1563   -2.0600    0.0000 H       1  UNL1        0.0675
    130 H           2.3141    5.5826    0.0000 H       1  UNL1        0.0274
    131 H           1.4655    5.3622    0.0000 H       1  UNL1        0.0274
    132 H           4.0378    4.4954    0.0000 H       1  UNL1        0.0274
    133 H           4.2713    5.3405    0.0000 H       1  UNL1        0.0274
    134 H           3.4262    5.5740    0.0000 H       1  UNL1        0.0274
    135 H           1.6859    4.5135    0.0000 H       1  UNL1        0.0274
    136 H          15.0224   -0.9400    0.0000 H       1  UNL1        0.0651
    137 H          14.0179    0.7249    0.0000 H       1  UNL1        0.0587
    138 H          13.2209    0.7249    0.0000 H       1  UNL1        0.0587
    139 H          14.4854    0.3700    0.0000 H       1  UNL1        0.0643
    140 H          13.2903   -3.5600    0.0000 H       1  UNL1        0.0938
    141 H          15.3515    0.8700    0.0000 H       1  UNL1        0.2100
    142 H          15.6805   -0.9400    0.0000 H       1  UNL1        0.0938
    143 H          12.7534   -4.8700    0.0000 H       1  UNL1        0.0671
    144 H          17.6204   -2.0600    0.0000 H       1  UNL1        0.0675
    145 H          11.3504   -5.0600    0.0000 H       1  UNL1        0.0648
    146 H          11.0213   -2.6300    0.0000 H       1  UNL1        0.0621
    147 H          10.4844   -3.9400    0.0000 H       1  UNL1        0.0646
    148 H          18.4865   -0.9400    0.0000 H       1  UNL1        0.0648
    149 H          13.6194   -5.3700    0.0000 H       1  UNL1        0.2101
    150 H          16.5466    0.5600    0.0000 H       1  UNL1        0.0647
    151 H          17.9495    0.3700    0.0000 H       1  UNL1        0.0647
    152 H          10.4653   -2.2131    0.0000 H       1  UNL1        0.0255
    153 H           9.6184   -2.4400    0.0000 H       1  UNL1        0.0255
    154 H           9.8453   -3.2869    0.0000 H       1  UNL1        0.0255
    155 H          11.3504   -6.0600    0.0000 H       1  UNL1        0.2100
    156 H           9.6184   -4.4400    0.0000 H       1  UNL1        0.2100
    157 H          17.6941    1.1423    0.0000 H       1  UNL1        0.0587
    158 H          17.2956    1.8326    0.0000 H       1  UNL1        0.0587
    159 H          17.9495   -2.6300    0.0000 H       1  UNL1        0.0938
    160 H          19.3525   -1.4400    0.0000 H       1  UNL1        0.2100
    161 H          18.8156    0.8700    0.0000 H       1  UNL1        0.2100
    162 H          17.9495   -4.8700    0.0000 H       1  UNL1        0.0671
    163 H          19.3525   -5.0600    0.0000 H       1  UNL1        0.0648
    164 H          19.6816   -2.6300    0.0000 H       1  UNL1        0.0647
    165 H          20.2185   -3.9400    0.0000 H       1  UNL1        0.0647
    166 H          15.6805    2.4400    0.0000 H       1  UNL1        0.0937
    167 H          17.0835   -5.3700    0.0000 H       1  UNL1        0.2101
    168 H          14.8145    3.5600    0.0000 H       1  UNL1        0.0671
    169 H          20.9461   -2.2750    0.0000 H       1  UNL1        0.0584
    170 H          20.1491   -2.2750    0.0000 H       1  UNL1        0.0584
    171 H          19.3525   -6.0600    0.0000 H       1  UNL1        0.2100
    172 H          20.5476   -5.3700    0.0000 H       1  UNL1        0.2100
    173 H          15.3515    4.8700    0.0000 H       1  UNL1        0.0648
    174 H          17.6204    3.9400    0.0000 H       1  UNL1        0.0647
    175 H          16.7544    5.0600    0.0000 H       1  UNL1        0.0647
    176 H          13.9485    3.0600    0.0000 H       1  UNL1        0.2101
    177 H          21.9506   -2.9400    0.0000 H       1  UNL1        0.2095
    178 H          18.1616    4.1674    0.0000 H       1  UNL1        0.0584
    179 H          18.5601    4.8577    0.0000 H       1  UNL1        0.0584
    180 H          14.4854    5.3700    0.0000 H       1  UNL1        0.2100
    181 H          15.6805    6.0600    0.0000 H       1  UNL1        0.2100
    182 H          18.4865    6.0600    0.0000 H       1  UNL1        0.2095
@<TRIPOS>BOND
     1     1    33    1
     2     1    36    1
     3    33     2    1
     4     2    50    1
     5    41     3    1
     6     3   126    1
     7    48     4    1
     8    55     4    1
     9     5    55    1
    10     5    61    1
    11    57     6    1
    12    63     6    1
    13    60     7    1
    14    64     7    1
    15    62     8    1
    16     8   141    1
    17     9    63    1
    18     9    68    1
    19    10    64    1
    20    10    71    1
    21    65    11    1
    22    11   149    1
    23    66    12    1
    24    75    12    1
    25    67    13    1
    26    13   155    1
    27    69    14    1
    28    14   156    1
    29    70    15    1
    30    15   160    1
    31    72    16    1
    32    16   161    1
    33    17    74    1
    34    80    17    1
    35    18    75    1
    36    18    78    1
    37    76    19    1
    38    19   167    1
    39    77    20    1
    40    20   171    1
    41    21    80    1
    42    21    84    1
    43    79    22    1
    44    22   172    1
    45    81    23    1
    46    23   176    1
    47    24    82    1
    48    24   177    1
    49    83    25    1
    50    25   180    1
    51    85    26    1
    52    26   181    1
    53    27    86    1
    54    27   182    1
    55    28    29    1
    56    28    30    1
    57    28    34    1
    58    28    36    1
    59    29    31    1
    60    29    38    1
    61    29    43    1
    62    30    32    1
    63    30    37    1
    64    30    87    1
    65    31    35    1
    66    31    40    1
    67    31    88    1
    68    32    33    1
    69    32    41    1
    70    32    89    1
    71    33    34    1
    72    34    90    1
    73    34    91    1
    74    35    39    1
    75    35    45    1
    76    35    46    1
    77    36    92    1
    78    36    93    1
    79    37    40    1
    80    37    94    1
    81    37    95    1
    82    38    42    1
    83    38    96    1
    84    38    97    1
    85    39    42    1
    86    39    44    1
    87    39    98    1
    88    40    99    1
    89    40   100    1
    90    41    47    1
    91    41    51    1
    92    42   101    1
    93    42   102    1
    94    43   103    1
    95    43   104    1
    96    43   105    1
    97    44    48    1
    98    44    52    1
    99    44    53    1
   100    45    49    1
   101    45   106    1
   102    45   107    1
   103    46   108    1
   104    46   109    1
   105    46   110    1
   106    47    50    1
   107    47   111    1
   108    47   112    1
   109    48    49    1
   110    48   113    1
   111    49   114    1
   112    49   115    1
   113    50    54    1
   114    50   116    1
   115    51   117    1
   116    51   118    1
   117    51   119    1
   118    52   120    1
   119    52   121    1
   120    52   122    1
   121    53   123    1
   122    53   124    1
   123    53   125    1
   124    54    56    2
   125    54   127    1
   126    55    57    1
   127    55   128    1
   128    56    58    1
   129    56    59    1
   130    57    60    1
   131    57   129    1
   132    58   130    1
   133    58   131    1
   134    58   135    1
   135    59   132    1
   136    59   133    1
   137    59   134    1
   138    60    62    1
   139    60   136    1
   140    61    62    1
   141    61   137    1
   142    61   138    1
   143    62   139    1
   144    63    65    1
   145    63   140    1
   146    64    66    1
   147    64   142    1
   148    65    67    1
   149    65   143    1
   150    66    70    1
   151    66   144    1
   152    67    69    1
   153    67   145    1
   154    68    69    1
   155    68    73    1
   156    68   146    1
   157    69   147    1
   158    70    72    1
   159    70   148    1
   160    71    72    1
   161    71    74    1
   162    71   150    1
   163    72   151    1
   164    73   152    1
   165    73   153    1
   166    73   154    1
   167    74   157    1
   168    74   158    1
   169    75    76    1
   170    75   159    1
   171    76    77    1
   172    76   162    1
   173    77    79    1
   174    77   163    1
   175    78    79    1
   176    78    82    1
   177    78   164    1
   178    79   165    1
   179    80    81    1
   180    80   166    1
   181    81    83    1
   182    81   168    1
   183    82   169    1
   184    82   170    1
   185    83    85    1
   186    83   173    1
   187    84    85    1
   188    84    86    1
   189    84   174    1
   190    85   175    1
   191    86   178    1
   192    86   179    1
