@<TRIPOS>MOLECULE
IMPHY011125
 123 129 0 0 0
SMALL
GASTEIGER

@<TRIPOS>ATOM
      1 O           6.8671   -1.6941    0.0000 O.3     1  UNL1       -0.3449
      2 O           9.6611    5.3844    0.0000 O.3     1  UNL1       -0.3906
      3 O           8.6209    7.5853    0.0000 O.3     1  UNL1       -0.4802
      4 O           9.6152    6.7704    0.0000 O.2     1  UNL1       -0.2503
      5 O           5.1350   -1.6941    0.0000 O.3     1  UNL1       -0.3315
      6 O           6.8671   -3.6941    0.0000 O.3     1  UNL1       -0.3378
      7 O           5.1350   -4.6941    0.0000 O.3     1  UNL1       -0.3864
      8 O           3.4030   -3.6941    0.0000 O.3     1  UNL1       -0.3860
      9 O           6.0010   -5.1941    0.0000 O.3     1  UNL1       -0.3405
     10 O           2.5369   -2.1941    0.0000 O.3     1  UNL1       -0.4788
     11 O           3.4030   -0.6941    0.0000 O.2     1  UNL1       -0.2480
     12 O           8.5991   -4.6941    0.0000 O.3     1  UNL1       -0.3841
     13 O           8.5991   -6.6941    0.0000 O.3     1  UNL1       -0.3864
     14 O           6.8671   -7.6941    0.0000 O.3     1  UNL1       -0.3865
     15 O           4.2690   -6.1941    0.0000 O.3     1  UNL1       -0.3924
     16 C           7.7681    3.0061    0.0000 C.3     1  UNL1       -0.0193
     17 C           6.9040    2.5027    0.0000 C.3     1  UNL1       -0.0257
     18 C           6.8920    1.4612    0.0000 C.3     1  UNL1       -0.0250
     19 C           7.7643    4.0061    0.0000 C.3     1  UNL1       -0.0028
     20 C           7.7920    0.9369    0.0000 C.3     1  UNL1       -0.0278
     21 C           8.6801    2.5027    0.0000 C.3     1  UNL1       -0.0463
     22 C           8.6921    1.4612    0.0000 C.3     1  UNL1       -0.0486
     23 C           7.8046   -0.1480    0.0000 C.3     1  UNL1       -0.0052
     24 C           6.8963    4.5027    0.0000 C.2     1  UNL1       -0.0627
     25 C           6.8762    5.5442    0.0000 C.3     1  UNL1       -0.0007
     26 C           6.0361    2.9994    0.0000 C.3     1  UNL1       -0.0306
     27 C           5.9421    0.9369    0.0000 C.3     1  UNL1       -0.0447
     28 C           8.6723    4.5164    0.0000 C.3     1  UNL1       -0.0162
     29 C           7.7722    6.0754    0.0000 C.3     1  UNL1        0.0998
     30 C           8.6763    5.5580    0.0000 C.3     1  UNL1        0.0723
     31 C           8.7522    3.1835    0.0000 C.3     1  UNL1       -0.0585
     32 C           6.8671   -0.6941    0.0000 C.3     1  UNL1        0.0672
     33 C           6.0279    1.9645    0.0000 C.3     1  UNL1       -0.0590
     34 C           6.0322    3.9994    0.0000 C.2     1  UNL1       -0.0836
     35 C           5.9295   -0.1480    0.0000 C.3     1  UNL1       -0.0255
     36 C           8.7497    3.8362    0.0000 C.3     1  UNL1       -0.0552
     37 C           5.9223    6.0611    0.0000 C.3     1  UNL1       -0.0402
     38 C           7.7764    7.1604    0.0000 C.3     1  UNL1       -0.0338
     39 C           5.9014    7.1459    0.0000 C.3     1  UNL1       -0.0343
     40 C           8.8046   -0.1403    0.0000 C.3     1  UNL1       -0.0572
     41 C           8.3113   -1.0102    0.0000 C.3     1  UNL1       -0.0572
     42 C           6.8347    7.6992    0.0000 C.3     1  UNL1       -0.0467
     43 C           8.6324    6.5854    0.0000 C.2     1  UNL1        0.3140
     44 C           5.3881    8.0041    0.0000 C.3     1  UNL1       -0.0598
     45 C           4.9015    7.1305    0.0000 C.3     1  UNL1       -0.0598
     46 C           6.0010   -2.1941    0.0000 C.3     1  UNL1        0.1892
     47 C           6.0010   -3.1941    0.0000 C.3     1  UNL1        0.1407
     48 C           5.1350   -3.6941    0.0000 C.3     1  UNL1        0.1149
     49 C           4.2690   -2.1941    0.0000 C.3     1  UNL1        0.1859
     50 C           4.2690   -3.1941    0.0000 C.3     1  UNL1        0.1202
     51 C           6.8671   -4.6941    0.0000 C.3     1  UNL1        0.1885
     52 C           3.4030   -1.6941    0.0000 C.2     1  UNL1        0.3367
     53 C           7.7331   -5.1941    0.0000 C.3     1  UNL1        0.1341
     54 C           7.7331   -6.1941    0.0000 C.3     1  UNL1        0.1141
     55 C           6.0010   -6.1941    0.0000 C.3     1  UNL1        0.1130
     56 C           6.8671   -6.6941    0.0000 C.3     1  UNL1        0.1119
     57 C           5.1350   -6.6941    0.0000 C.3     1  UNL1        0.0730
     58 H           7.6385    2.0749    0.0000 H       1  UNL1        0.0315
     59 H           8.5314    0.5176    0.0000 H       1  UNL1        0.0312
     60 H           9.2921    2.4037    0.0000 H       1  UNL1        0.0271
     61 H           8.8824    3.0888    0.0000 H       1  UNL1        0.0271
     62 H           8.9079    0.8800    0.0000 H       1  UNL1        0.0268
     63 H           9.3017    1.5743    0.0000 H       1  UNL1        0.0268
     64 H           6.1502    5.1023    0.0000 H       1  UNL1        0.0357
     65 H           5.4251    3.1047    0.0000 H       1  UNL1        0.0310
     66 H           5.8263    2.4160    0.0000 H       1  UNL1        0.0310
     67 H           5.7398    1.5230    0.0000 H       1  UNL1        0.0271
     68 H           5.3300    0.8379    0.0000 H       1  UNL1        0.0271
     69 H           8.8791    3.9319    0.0000 H       1  UNL1        0.0299
     70 H           9.2836    4.6202    0.0000 H       1  UNL1        0.0299
     71 H           8.8872    6.1411    0.0000 H       1  UNL1        0.0605
     72 H           8.8623    2.5734    0.0000 H       1  UNL1        0.0235
     73 H           9.3624    3.2936    0.0000 H       1  UNL1        0.0235
     74 H           8.6422    3.7937    0.0000 H       1  UNL1        0.0235
     75 H           7.4046   -1.0031    0.0000 H       1  UNL1        0.0602
     76 H           6.3400    2.5003    0.0000 H       1  UNL1        0.0235
     77 H           5.4922    2.2766    0.0000 H       1  UNL1        0.0235
     78 H           5.7158    1.4288    0.0000 H       1  UNL1        0.0235
     79 H           5.4941    4.3073    0.0000 H       1  UNL1        0.0572
     80 H           5.3199   -0.0349    0.0000 H       1  UNL1        0.0290
     81 H           5.7137   -0.7293    0.0000 H       1  UNL1        0.0290
     82 H           8.6444    3.2252    0.0000 H       1  UNL1        0.0238
     83 H           9.3607    3.7309    0.0000 H       1  UNL1        0.0238
     84 H           8.8550    4.4472    0.0000 H       1  UNL1        0.0238
     85 H           5.3095    6.1554    0.0000 H       1  UNL1        0.0276
     86 H           5.7246    5.4735    0.0000 H       1  UNL1        0.0276
     87 H           8.3869    7.0519    0.0000 H       1  UNL1        0.0277
     88 H           7.9877    7.7433    0.0000 H       1  UNL1        0.0277
     89 H           8.8094   -0.7603    0.0000 H       1  UNL1        0.0236
     90 H           9.4246   -0.1355    0.0000 H       1  UNL1        0.0236
     91 H           8.7998    0.4797    0.0000 H       1  UNL1        0.0236
     92 H           7.7767   -1.3243    0.0000 H       1  UNL1        0.0236
     93 H           8.6254   -1.5447    0.0000 H       1  UNL1        0.0236
     94 H           8.8458   -0.6960    0.0000 H       1  UNL1        0.0236
     95 H           7.2302    8.1767    0.0000 H       1  UNL1        0.0271
     96 H           6.4319    8.1706    0.0000 H       1  UNL1        0.0271
     97 H           9.8732    4.8018    0.0000 H       1  UNL1        0.2098
     98 H           4.8920    7.7504    0.0000 H       1  UNL1        0.0235
     99 H           4.2816    7.1209    0.0000 H       1  UNL1        0.0235
    100 H           4.9111    6.5106    0.0000 H       1  UNL1        0.0235
    101 H           5.9202    8.3224    0.0000 H       1  UNL1        0.0235
    102 H           5.0699    8.5362    0.0000 H       1  UNL1        0.0235
    103 H           4.8560    7.6859    0.0000 H       1  UNL1        0.0235
    104 H           6.0010   -1.5741    0.0000 H       1  UNL1        0.0938
    105 H           9.1542    7.9015    0.0000 H       1  UNL1        0.2951
    106 H           6.0010   -3.8141    0.0000 H       1  UNL1        0.0675
    107 H           4.5981   -4.0041    0.0000 H       1  UNL1        0.0648
    108 H           4.2690   -1.5741    0.0000 H       1  UNL1        0.0741
    109 H           3.7320   -2.8841    0.0000 H       1  UNL1        0.0652
    110 H           7.4040   -4.3841    0.0000 H       1  UNL1        0.0938
    111 H           4.5981   -5.0041    0.0000 H       1  UNL1        0.2100
    112 H           3.4030   -4.3141    0.0000 H       1  UNL1        0.2100
    113 H           8.2700   -5.5041    0.0000 H       1  UNL1        0.0671
    114 H           7.7331   -6.8141    0.0000 H       1  UNL1        0.0648
    115 H           5.4641   -5.8841    0.0000 H       1  UNL1        0.0647
    116 H           2.0000   -1.8841    0.0000 H       1  UNL1        0.2951
    117 H           6.3301   -7.0041    0.0000 H       1  UNL1        0.0647
    118 H           8.5991   -4.0741    0.0000 H       1  UNL1        0.2101
    119 H           4.7365   -7.1691    0.0000 H       1  UNL1        0.0584
    120 H           5.5335   -7.1691    0.0000 H       1  UNL1        0.0584
    121 H           8.5991   -7.3141    0.0000 H       1  UNL1        0.2100
    122 H           6.3301   -8.0041    0.0000 H       1  UNL1        0.2100
    123 H           3.7320   -6.5041    0.0000 H       1  UNL1        0.2095
@<TRIPOS>BOND
     1    32     1    1
     2    46     1    1
     3    30     2    1
     4     2    97    1
     5     3    43    1
     6     3   105    1
     7     4    43    2
     8     5    46    1
     9     5    49    1
    10    47     6    1
    11    51     6    1
    12    48     7    1
    13     7   111    1
    14    50     8    1
    15     8   112    1
    16     9    51    1
    17     9    55    1
    18    10    52    1
    19    10   116    1
    20    11    52    2
    21    53    12    1
    22    12   118    1
    23    54    13    1
    24    13   121    1
    25    56    14    1
    26    14   122    1
    27    15    57    1
    28    15   123    1
    29    16    17    1
    30    16    19    1
    31    16    21    1
    32    16    31    1
    33    17    18    1
    34    17    26    1
    35    17    58    1
    36    18    20    1
    37    18    27    1
    38    18    33    1
    39    19    24    1
    40    19    28    1
    41    19    36    1
    42    20    22    1
    43    20    23    1
    44    20    59    1
    45    21    22    1
    46    21    60    1
    47    21    61    1
    48    22    62    1
    49    22    63    1
    50    23    32    1
    51    23    40    1
    52    23    41    1
    53    24    25    1
    54    24    34    2
    55    25    29    1
    56    25    37    1
    57    25    64    1
    58    26    34    1
    59    26    65    1
    60    26    66    1
    61    27    35    1
    62    27    67    1
    63    27    68    1
    64    28    30    1
    65    28    69    1
    66    28    70    1
    67    29    30    1
    68    29    38    1
    69    29    43    1
    70    30    71    1
    71    31    72    1
    72    31    73    1
    73    31    74    1
    74    32    35    1
    75    32    75    1
    76    33    76    1
    77    33    77    1
    78    33    78    1
    79    34    79    1
    80    35    80    1
    81    35    81    1
    82    36    82    1
    83    36    83    1
    84    36    84    1
    85    37    39    1
    86    37    85    1
    87    37    86    1
    88    38    42    1
    89    38    87    1
    90    38    88    1
    91    39    42    1
    92    39    44    1
    93    39    45    1
    94    40    89    1
    95    40    90    1
    96    40    91    1
    97    41    92    1
    98    41    93    1
    99    41    94    1
   100    42    95    1
   101    42    96    1
   102    44   101    1
   103    44   102    1
   104    44   103    1
   105    45    98    1
   106    45    99    1
   107    45   100    1
   108    46    47    1
   109    46   104    1
   110    47    48    1
   111    47   106    1
   112    48    50    1
   113    48   107    1
   114    49    50    1
   115    49    52    1
   116    49   108    1
   117    50   109    1
   118    51    53    1
   119    51   110    1
   120    53    54    1
   121    53   113    1
   122    54    56    1
   123    54   114    1
   124    55    56    1
   125    55    57    1
   126    55   115    1
   127    56   117    1
   128    57   119    1
   129    57   120    1
