@<TRIPOS>MOLECULE
IMPHY016569
 42 44 0 0 0
SMALL
GASTEIGER

@<TRIPOS>ATOM
      1 O           3.4173   -1.3961    0.0000 O.3     1  UNL1       -0.3672
      2 C           3.8732    0.6778    0.0000 C.3     1  UNL1       -0.0088
      3 C           4.4349    0.2508    0.0000 C.3     1  UNL1       -0.0299
      4 C           4.4124   -0.8276    0.0000 C.3     1  UNL1        0.0705
      5 C           2.8172   -0.8051    0.0000 C.3     1  UNL1        0.0678
      6 C           5.3561    0.0936    0.0000 C.3     1  UNL1       -0.0354
      7 C           3.3564   -0.1086    0.0000 C.3     1  UNL1       -0.0205
      8 C           3.1542    0.8799    0.0000 C.3     1  UNL1       -0.0447
      9 C           5.4837   -1.2695    0.0000 C.3     1  UNL1       -0.0234
     10 C           2.3679    0.1609    0.0000 C.3     1  UNL1       -0.0236
     11 C           5.9402   -0.5804    0.0000 C.3     1  UNL1       -0.0471
     12 C           5.8467    0.9649    0.0000 C.3     1  UNL1       -0.0436
     13 C           4.4763   -1.8256    0.0000 C.3     1  UNL1       -0.0355
     14 C           2.0000   -1.3814    0.0000 C.3     1  UNL1       -0.0358
     15 C           6.8467    0.9757    0.0000 C.3     1  UNL1       -0.0624
     16 C           5.3375    1.8256    0.0000 C.3     1  UNL1       -0.0624
     17 H           4.1495    1.2328    0.0000 H       1  UNL1        0.0331
     18 H           4.4822   -0.3674    0.0000 H       1  UNL1        0.0308
     19 H           5.9729    0.1559    0.0000 H       1  UNL1        0.0306
     20 H           3.3596    0.5113    0.0000 H       1  UNL1        0.0296
     21 H           3.7151   -0.6144    0.0000 H       1  UNL1        0.0296
     22 H           3.4292    1.4356    0.0000 H       1  UNL1        0.0270
     23 H           2.6587    1.2526    0.0000 H       1  UNL1        0.0270
     24 H           5.2107   -1.8261    0.0000 H       1  UNL1        0.0293
     25 H           6.0216   -1.5778    0.0000 H       1  UNL1        0.0293
     26 H           1.9982    0.6586    0.0000 H       1  UNL1        0.0293
     27 H           1.8352   -0.1563    0.0000 H       1  UNL1        0.0293
     28 H           6.4240   -0.9682    0.0000 H       1  UNL1        0.0269
     29 H           6.3701   -0.1337    0.0000 H       1  UNL1        0.0269
     30 H           6.1510    1.5052    0.0000 H       1  UNL1        0.0298
     31 H           3.8575   -1.8651    0.0000 H       1  UNL1        0.0257
     32 H           4.5158   -2.4443    0.0000 H       1  UNL1        0.0257
     33 H           5.0950   -1.7860    0.0000 H       1  UNL1        0.0257
     34 H           1.6427   -0.8748    0.0000 H       1  UNL1        0.0257
     35 H           1.4933   -1.7388    0.0000 H       1  UNL1        0.0257
     36 H           2.3573   -1.8881    0.0000 H       1  UNL1        0.0257
     37 H           6.8533    0.3557    0.0000 H       1  UNL1        0.0232
     38 H           7.4666    0.9823    0.0000 H       1  UNL1        0.0232
     39 H           6.8400    1.5956    0.0000 H       1  UNL1        0.0232
     40 H           5.8710    2.1413    0.0000 H       1  UNL1        0.0232
     41 H           5.0217    2.3591    0.0000 H       1  UNL1        0.0232
     42 H           4.8039    1.5098    0.0000 H       1  UNL1        0.0232
@<TRIPOS>BOND
     1     1     4    1
     2     1     5    1
     3     2     3    1
     4     2     4    1
     5     2     8    1
     6     2    17    1
     7     3     6    1
     8     3     7    1
     9     3    18    1
    10     4     9    1
    11     4    13    1
    12     5     7    1
    13     5    10    1
    14     5    14    1
    15     6    11    1
    16     6    12    1
    17     6    19    1
    18     7    20    1
    19     7    21    1
    20     8    10    1
    21     8    22    1
    22     8    23    1
    23     9    11    1
    24     9    24    1
    25     9    25    1
    26    10    26    1
    27    10    27    1
    28    11    28    1
    29    11    29    1
    30    12    15    1
    31    12    16    1
    32    12    30    1
    33    13    31    1
    34    13    32    1
    35    13    33    1
    36    14    34    1
    37    14    35    1
    38    14    36    1
    39    15    37    1
    40    15    38    1
    41    15    39    1
    42    16    40    1
    43    16    41    1
    44    16    42    1
