@<TRIPOS>MOLECULE
IMPHY009802
 81 85 0 0 0
SMALL
GASTEIGER

@<TRIPOS>ATOM
      1 O           6.6507    2.1861    0.0000 O.3     1  UNL1       -0.4802
      2 O           7.5167    2.6861    0.0000 O.2     1  UNL1       -0.2504
      3 O          11.1246    2.8304    0.0000 O.2     1  UNL1       -0.2971
      4 C           6.6507   -0.8139    0.0000 C.3     1  UNL1       -0.0225
      5 C           5.7847   -0.3139    0.0000 C.3     1  UNL1       -0.0230
      6 C           7.5167   -0.3139    0.0000 C.3     1  UNL1       -0.0191
      7 C           7.5167    0.6861    0.0000 C.3     1  UNL1        0.0742
      8 C           4.8746   -0.8208    0.0000 C.3     1  UNL1       -0.0292
      9 C           4.8666   -1.8624    0.0000 C.3     1  UNL1       -0.0287
     10 C           8.4106    1.2207    0.0000 C.3     1  UNL1       -0.0186
     11 C           5.7847    0.6861    0.0000 C.3     1  UNL1       -0.0458
     12 C           6.6667   -1.8554    0.0000 C.3     1  UNL1       -0.0463
     13 C           6.6507    1.1861    0.0000 C.3     1  UNL1       -0.0362
     14 C           9.3167    0.7069    0.0000 C.3     1  UNL1       -0.0190
     15 C           8.4106   -0.8486    0.0000 C.3     1  UNL1       -0.0482
     16 C           5.7687   -2.3832    0.0000 C.3     1  UNL1       -0.0468
     17 C           3.9478   -0.2567    0.0000 C.3     1  UNL1       -0.0440
     18 C           9.3167   -0.3348    0.0000 C.3     1  UNL1       -0.0464
     19 C           7.5167   -1.3139    0.0000 C.3     1  UNL1       -0.0588
     20 C           4.9186    0.1861    0.0000 C.3     1  UNL1       -0.0588
     21 C           3.9312   -2.4121    0.0000 C.3     1  UNL1       -0.0469
     22 C           2.9999   -0.7846    0.0000 C.3     1  UNL1       -0.0346
     23 C           8.3856    2.3054    0.0000 C.3     1  UNL1       -0.0420
     24 C          10.2605    1.2421    0.0000 C.3     1  UNL1        0.0203
     25 C           2.9916   -1.8696    0.0000 C.3     1  UNL1       -0.0474
     26 C           7.5167    1.6861    0.0000 C.2     1  UNL1        0.3115
     27 C           4.8589   -2.8624    0.0000 C.3     1  UNL1       -0.0593
     28 C          10.1866    0.2136    0.0000 C.3     1  UNL1       -0.0586
     29 C           9.3167    2.8624    0.0000 C.3     1  UNL1        0.0064
     30 C          10.2605    2.3271    0.0000 C.2     1  UNL1        0.1367
     31 C           2.0000   -0.7731    0.0000 C.3     1  UNL1       -0.0598
     32 C           2.5100    0.0871    0.0000 C.3     1  UNL1       -0.0598
     33 C          11.1246    0.7388    0.0000 C.3     1  UNL1       -0.0552
     34 H           8.2561    0.1054    0.0000 H       1  UNL1        0.0317
     35 H           5.6058   -1.2543    0.0000 H       1  UNL1        0.0312
     36 H           9.1401    1.6570    0.0000 H       1  UNL1        0.0317
     37 H           5.5726    1.2687    0.0000 H       1  UNL1        0.0271
     38 H           5.1741    0.5784    0.0000 H       1  UNL1        0.0271
     39 H           6.8848   -2.4358    0.0000 H       1  UNL1        0.0271
     40 H           7.2759   -1.7399    0.0000 H       1  UNL1        0.0271
     41 H           7.0492    1.6610    0.0000 H       1  UNL1        0.0276
     42 H           6.2522    1.6610    0.0000 H       1  UNL1        0.0276
     43 H           8.0060   -1.3184    0.0000 H       1  UNL1        0.0269
     44 H           8.8043   -1.3276    0.0000 H       1  UNL1        0.0269
     45 H           5.3714   -2.8592    0.0000 H       1  UNL1        0.0271
     46 H           6.1697   -2.8561    0.0000 H       1  UNL1        0.0271
     47 H           4.3560    0.2100    0.0000 H       1  UNL1        0.0273
     48 H           3.5579    0.2253    0.0000 H       1  UNL1        0.0273
     49 H           9.5258   -0.9184    0.0000 H       1  UNL1        0.0271
     50 H           9.9276   -0.2287    0.0000 H       1  UNL1        0.0271
     51 H           7.2067   -1.8509    0.0000 H       1  UNL1        0.0235
     52 H           8.0536   -1.6239    0.0000 H       1  UNL1        0.0235
     53 H           7.8267   -0.7770    0.0000 H       1  UNL1        0.0235
     54 H           5.2286    0.7230    0.0000 H       1  UNL1        0.0235
     55 H           4.3817    0.4961    0.0000 H       1  UNL1        0.0235
     56 H           4.6086   -0.3509    0.0000 H       1  UNL1        0.0235
     57 H           3.5339   -2.8881    0.0000 H       1  UNL1        0.0271
     58 H           4.3322   -2.8850    0.0000 H       1  UNL1        0.0271
     59 H           8.1631    2.8841    0.0000 H       1  UNL1        0.0272
     60 H           7.7773    2.1852    0.0000 H       1  UNL1        0.0272
     61 H          10.7980    1.5511    0.0000 H       1  UNL1        0.0380
     62 H           2.3816   -1.7588    0.0000 H       1  UNL1        0.0271
     63 H           2.7780   -2.4517    0.0000 H       1  UNL1        0.0271
     64 H           4.2389   -2.8576    0.0000 H       1  UNL1        0.0235
     65 H           4.8541   -3.4823    0.0000 H       1  UNL1        0.0235
     66 H           5.4789   -2.8671    0.0000 H       1  UNL1        0.0235
     67 H           9.8807   -0.3257    0.0000 H       1  UNL1        0.0235
     68 H          10.7259   -0.0923    0.0000 H       1  UNL1        0.0235
     69 H          10.4924    0.7529    0.0000 H       1  UNL1        0.0235
     70 H           9.7103    3.3414    0.0000 H       1  UNL1        0.0342
     71 H           8.9121    3.3321    0.0000 H       1  UNL1        0.0342
     72 H           2.0072   -0.1531    0.0000 H       1  UNL1        0.0235
     73 H           1.3800   -0.7659    0.0000 H       1  UNL1        0.0235
     74 H           1.9928   -1.3930    0.0000 H       1  UNL1        0.0235
     75 H           3.0505    0.3909    0.0000 H       1  UNL1        0.0235
     76 H           2.2062    0.6276    0.0000 H       1  UNL1        0.0235
     77 H           1.9695   -0.2167    0.0000 H       1  UNL1        0.0235
     78 H          10.8125    0.2030    0.0000 H       1  UNL1        0.0237
     79 H          11.6603    0.4267    0.0000 H       1  UNL1        0.0237
     80 H          11.4367    1.2745    0.0000 H       1  UNL1        0.0237
     81 H           6.6507    2.8061    0.0000 H       1  UNL1        0.2951
@<TRIPOS>BOND
     1     1    26    1
     2     1    81    1
     3     2    26    2
     4     3    30    2
     5     4     5    1
     6     4     6    1
     7     4    12    1
     8     4    19    1
     9     5     8    1
    10     5    11    1
    11     5    20    1
    12     6     7    1
    13     6    15    1
    14     6    34    1
    15     7    10    1
    16     7    13    1
    17     7    26    1
    18     8     9    1
    19     8    17    1
    20     8    35    1
    21     9    16    1
    22     9    21    1
    23     9    27    1
    24    10    14    1
    25    10    23    1
    26    10    36    1
    27    11    13    1
    28    11    37    1
    29    11    38    1
    30    12    16    1
    31    12    39    1
    32    12    40    1
    33    13    41    1
    34    13    42    1
    35    14    18    1
    36    14    24    1
    37    14    28    1
    38    15    18    1
    39    15    43    1
    40    15    44    1
    41    16    45    1
    42    16    46    1
    43    17    22    1
    44    17    47    1
    45    17    48    1
    46    18    49    1
    47    18    50    1
    48    19    51    1
    49    19    52    1
    50    19    53    1
    51    20    54    1
    52    20    55    1
    53    20    56    1
    54    21    25    1
    55    21    57    1
    56    21    58    1
    57    22    25    1
    58    22    31    1
    59    22    32    1
    60    23    29    1
    61    23    59    1
    62    23    60    1
    63    24    30    1
    64    24    33    1
    65    24    61    1
    66    25    62    1
    67    25    63    1
    68    27    64    1
    69    27    65    1
    70    27    66    1
    71    28    67    1
    72    28    68    1
    73    28    69    1
    74    29    30    1
    75    29    70    1
    76    29    71    1
    77    31    72    1
    78    31    73    1
    79    31    74    1
    80    32    75    1
    81    32    76    1
    82    32    77    1
    83    33    78    1
    84    33    79    1
    85    33    80    1
