@<TRIPOS>MOLECULE
IMPHY015254
 22 22 0 0 0
SMALL
GASTEIGER

@<TRIPOS>ATOM
      1 C           2.9511   -0.5684    0.0000 C.3     1  UNL1       -0.0225
      2 C           3.2601   -1.5194    0.0000 C.3     1  UNL1       -0.0433
      3 C           3.7601    0.0194    0.0000 C.2     1  UNL1       -0.0709
      4 C           4.2601   -1.5194    0.0000 C.3     1  UNL1       -0.0340
      5 C           4.5691   -0.5684    0.0000 C.2     1  UNL1       -0.0845
      6 C           3.7601    1.0194    0.0000 C.3     1  UNL1       -0.0343
      7 C           2.0000   -0.2593    0.0000 C.3     1  UNL1       -0.0587
      8 C           4.6261    1.5194    0.0000 C.3     1  UNL1       -0.0616
      9 H           2.5126   -1.0068    0.0000 H       1  UNL1        0.0343
     10 H           2.6536   -1.6483    0.0000 H       1  UNL1        0.0274
     11 H           3.3249   -2.1360    0.0000 H       1  UNL1        0.0274
     12 H           4.1953   -2.1360    0.0000 H       1  UNL1        0.0308
     13 H           4.8665   -1.6483    0.0000 H       1  UNL1        0.0308
     14 H           5.1588   -0.3768    0.0000 H       1  UNL1        0.0572
     15 H           3.5480    1.6020    0.0000 H       1  UNL1        0.0307
     16 H           3.1495    0.9118    0.0000 H       1  UNL1        0.0307
     17 H           2.1916    0.3303    0.0000 H       1  UNL1        0.0235
     18 H           1.4103   -0.0678    0.0000 H       1  UNL1        0.0235
     19 H           1.8084   -0.8490    0.0000 H       1  UNL1        0.0235
     20 H           4.9361    0.9825    0.0000 H       1  UNL1        0.0233
     21 H           5.1630    1.8294    0.0000 H       1  UNL1        0.0233
     22 H           4.3161    2.0564    0.0000 H       1  UNL1        0.0233
@<TRIPOS>BOND
     1     1     2    1
     2     1     3    1
     3     1     7    1
     4     1     9    1
     5     2     4    1
     6     2    10    1
     7     2    11    1
     8     3     5    2
     9     3     6    1
    10     4     5    1
    11     4    12    1
    12     4    13    1
    13     5    14    1
    14     6     8    1
    15     6    15    1
    16     6    16    1
    17     7    17    1
    18     7    18    1
    19     7    19    1
    20     8    20    1
    21     8    21    1
    22     8    22    1
