@<TRIPOS>MOLECULE
IMPHY009286
 44 44 0 0 0
SMALL
GASTEIGER

@<TRIPOS>ATOM
      1 O           6.3301    0.5600    0.0000 O.3     1  UNL1       -0.4500
      2 O           8.0622   -1.4400    0.0000 O.3     1  UNL1       -0.4574
      3 O           3.7320    0.0600    0.0000 O.3     1  UNL1       -0.4532
      4 O           7.1962    2.0600    0.0000 O.2     1  UNL1       -0.2456
      5 O           8.9282    0.0600    0.0000 O.2     1  UNL1       -0.2511
      6 O           2.8660    1.5600    0.0000 O.2     1  UNL1       -0.2511
      7 C           7.1962    0.0600    0.0000 C.3     1  UNL1       -0.0120
      8 C           7.1962   -0.9400    0.0000 C.3     1  UNL1        0.1213
      9 C           8.0622    0.5600    0.0000 C.3     1  UNL1       -0.0497
     10 C           5.4641    0.0600    0.0000 C.3     1  UNL1        0.1620
     11 C           4.5981    0.5600    0.0000 C.3     1  UNL1        0.1620
     12 C           6.3301   -1.4400    0.0000 C.2     1  UNL1       -0.0443
     13 C           8.0622    1.5600    0.0000 C.3     1  UNL1       -0.0558
     14 C           5.4641   -0.9400    0.0000 C.2     1  UNL1       -0.0405
     15 C           4.5981    1.5600    0.0000 C.2     1  UNL1       -0.0333
     16 C           8.9282    2.0600    0.0000 C.3     1  UNL1       -0.0653
     17 C           5.4641    2.0600    0.0000 C.2     1  UNL1        0.0222
     18 C           6.3301    1.5600    0.0000 C.2     1  UNL1        0.3324
     19 C           8.9282   -0.9400    0.0000 C.2     1  UNL1        0.3045
     20 C           2.8660    0.5600    0.0000 C.2     1  UNL1        0.3046
     21 C           9.7942   -1.4400    0.0000 C.3     1  UNL1        0.0333
     22 C           2.0000    0.0600    0.0000 C.3     1  UNL1        0.0333
     23 H           6.9841    0.6426    0.0000 H       1  UNL1        0.0304
     24 H           6.5856   -0.0477    0.0000 H       1  UNL1        0.0304
     25 H           7.7331   -0.6300    0.0000 H       1  UNL1        0.0779
     26 H           8.2742   -0.0226    0.0000 H       1  UNL1        0.0266
     27 H           8.6728    0.6677    0.0000 H       1  UNL1        0.0266
     28 H           6.0010   -0.2500    0.0000 H       1  UNL1        0.0821
     29 H           4.5981   -0.0600    0.0000 H       1  UNL1        0.0821
     30 H           6.3301   -2.0600    0.0000 H       1  UNL1        0.0606
     31 H           7.8501    2.1426    0.0000 H       1  UNL1        0.0263
     32 H           7.4516    1.4523    0.0000 H       1  UNL1        0.0263
     33 H           4.9272   -1.2500    0.0000 H       1  UNL1        0.0608
     34 H           4.0611    1.8700    0.0000 H       1  UNL1        0.0612
     35 H           9.2382    1.5231    0.0000 H       1  UNL1        0.0230
     36 H           9.4651    2.3700    0.0000 H       1  UNL1        0.0230
     37 H           8.6182    2.5969    0.0000 H       1  UNL1        0.0230
     38 H           5.4641    2.6800    0.0000 H       1  UNL1        0.0687
     39 H           9.4842   -1.9769    0.0000 H       1  UNL1        0.0342
     40 H          10.3312   -1.7500    0.0000 H       1  UNL1        0.0342
     41 H          10.1042   -0.9031    0.0000 H       1  UNL1        0.0342
     42 H           1.6900    0.5969    0.0000 H       1  UNL1        0.0342
     43 H           1.4631   -0.2500    0.0000 H       1  UNL1        0.0342
     44 H           2.3100   -0.4769    0.0000 H       1  UNL1        0.0342
@<TRIPOS>BOND
     1     1    10    1
     2     1    18    1
     3     8     2    1
     4     2    19    1
     5    11     3    1
     6     3    20    1
     7     4    18    2
     8     5    19    2
     9     6    20    2
    10     7     8    1
    11     7     9    1
    12     7    23    1
    13     7    24    1
    14     8    12    1
    15     8    25    1
    16     9    13    1
    17     9    26    1
    18     9    27    1
    19    10    11    1
    20    10    14    1
    21    10    28    1
    22    11    15    1
    23    11    29    1
    24    12    14    2
    25    12    30    1
    26    13    16    1
    27    13    31    1
    28    13    32    1
    29    14    33    1
    30    15    17    2
    31    15    34    1
    32    16    35    1
    33    16    36    1
    34    16    37    1
    35    17    18    1
    36    17    38    1
    37    19    21    1
    38    20    22    1
    39    21    39    1
    40    21    40    1
    41    21    41    1
    42    22    42    1
    43    22    43    1
    44    22    44    1
