@<TRIPOS>MOLECULE
IMPHY005114
 40 44 0 0 0
SMALL
GASTEIGER

@<TRIPOS>ATOM
      1 O           3.9852   -1.9245    0.0000 O.3     1  UNL1       -0.4815
      2 O           7.2192   -0.1905    0.0000 O.2     1  UNL1       -0.4542
      3 O           7.4284    2.7813    0.0000 O.3     1  UNL1       -0.4864
      4 O          10.9585    2.8054    0.0000 O.3     1  UNL1       -0.5066
      5 C           5.8254    0.6142    0.0000 C.ar    1  UNL1        0.0280
      6 C           2.9116   -1.8209    0.0000 C.3     1  UNL1        0.1235
      7 C           6.5624    1.2813    0.0000 C.ar    1  UNL1        0.0432
      8 C           6.2305   -0.2936    0.0000 C.ar    1  UNL1        0.1396
      9 C           7.4284    0.7813    0.0000 C.ar    1  UNL1        0.1461
     10 C           4.1829   -0.0961    0.0000 C.ar    1  UNL1        0.0173
     11 C           4.6049   -1.0417    0.0000 C.ar    1  UNL1        0.1324
     12 C           4.7972    0.7374    0.0000 C.ar    1  UNL1       -0.0399
     13 C           6.5624    2.2813    0.0000 C.3     1  UNL1        0.1187
     14 C           5.6356   -1.1411    0.0000 C.ar    1  UNL1        0.0236
     15 C           8.2944    1.2813    0.0000 C.ar    1  UNL1        0.0595
     16 C           2.4721   -0.8360    0.0000 C.2     1  UNL1       -0.0409
     17 C           3.1120    0.0322    0.0000 C.2     1  UNL1       -0.0513
     18 C           2.0000   -2.2320    0.0000 C.3     1  UNL1       -0.0215
     19 C           2.8118   -2.8160    0.0000 C.3     1  UNL1       -0.0215
     20 C           8.2944    2.2813    0.0000 C.ar    1  UNL1        0.1351
     21 C           9.1884    0.7466    0.0000 C.ar    1  UNL1       -0.0441
     22 C           9.1884    2.8160    0.0000 C.ar    1  UNL1        0.0223
     23 C          10.0944    1.2605    0.0000 C.ar    1  UNL1       -0.0193
     24 C          10.0944    2.3021    0.0000 C.ar    1  UNL1        0.1204
     25 H           4.5512    1.3065    0.0000 H       1  UNL1        0.0632
     26 H           6.3503    2.8639    0.0000 H       1  UNL1        0.0749
     27 H           5.9518    2.1736    0.0000 H       1  UNL1        0.0749
     28 H           5.8948   -1.7043    0.0000 H       1  UNL1        0.0691
     29 H           1.8557   -0.7693    0.0000 H       1  UNL1        0.0611
     30 H           2.8659    0.6013    0.0000 H       1  UNL1        0.0623
     31 H           1.7452   -1.6668    0.0000 H       1  UNL1        0.0271
     32 H           1.4348   -2.4868    0.0000 H       1  UNL1        0.0271
     33 H           2.1949   -2.7540    0.0000 H       1  UNL1        0.0271
     34 H           2.7499   -3.4328    0.0000 H       1  UNL1        0.0271
     35 H           3.4287   -2.8778    0.0000 H       1  UNL1        0.0271
     36 H           2.2548   -2.7972    0.0000 H       1  UNL1        0.0271
     37 H           9.1812    0.1267    0.0000 H       1  UNL1        0.0627
     38 H           9.1812    3.4359    0.0000 H       1  UNL1        0.0691
     39 H          10.6302    0.9484    0.0000 H       1  UNL1        0.0654
     40 H          11.4967    2.4975    0.0000 H       1  UNL1        0.2921
@<TRIPOS>BOND
     1     1     6    1
     2     1    11    1
     3     2     8   ar
     4     2     9   ar
     5     3    13    1
     6     3    20    1
     7     4    24    1
     8     4    40    1
     9     5     7   ar
    10     5     8   ar
    11     5    12   ar
    12     6    16    1
    13     6    18    1
    14     6    19    1
    15     7     9   ar
    16     7    13    1
    17     8    14   ar
    18     9    15    1
    19    10    11   ar
    20    10    12   ar
    21    10    17    1
    22    11    14   ar
    23    12    25    1
    24    13    26    1
    25    13    27    1
    26    14    28    1
    27    15    20   ar
    28    15    21   ar
    29    16    17    2
    30    16    29    1
    31    17    30    1
    32    18    31    1
    33    18    32    1
    34    18    36    1
    35    19    33    1
    36    19    34    1
    37    19    35    1
    38    20    22   ar
    39    21    23   ar
    40    21    37    1
    41    22    24   ar
    42    22    38    1
    43    23    24   ar
    44    23    39    1
