@<TRIPOS>MOLECULE
IMPHY005707
 13 11 0 0 0
SMALL
GASTEIGER

@<TRIPOS>ATOM
      1 K           2.0000   -0.2500    0.0000 K       1  UNL1        0.0000
      2 O           2.8660    0.2500    0.0000 O.co2   2  UNL2       -0.5000
      3 O           7.1962   -0.2500    0.0000 O.co2   2  UNL2       -0.5000
      4 O           3.7320   -1.2500    0.0000 O.co2   2  UNL2       -0.5000
      5 O           6.3301    1.2500    0.0000 O.co2   2  UNL2       -0.5000
      6 C           4.5981    0.2500    0.0000 C.3     2  UNL2        0.0000
      7 C           5.4641   -0.2500    0.0000 C.3     2  UNL2        0.0000
      8 C           3.7320   -0.2500    0.0000 C.2     2  UNL2        0.0000
      9 C           6.3301    0.2500    0.0000 C.2     2  UNL2        0.0000
     10 H           4.9966    0.7249    0.0000 H       2  UNL2        0.0000
     11 H           4.1996    0.7249    0.0000 H       2  UNL2        0.0000
     12 H           5.0656   -0.7249    0.0000 H       2  UNL2        0.0000
     13 H           5.8626   -0.7249    0.0000 H       2  UNL2        0.0000
@<TRIPOS>UNITY_ATOM_ATTR
1 1
charge 1
2 1
charge -1
3 1
charge -1
@<TRIPOS>BOND
     1     2     8   ar
     2     3     9   ar
     3     4     8   ar
     4     5     9   ar
     5     6     7    1
     6     6     8    1
     7     6    10    1
     8     6    11    1
     9     7     9    1
    10     7    12    1
    11     7    13    1
