@<TRIPOS>MOLECULE
IMPHY006872
 16 18 0 0 0
SMALL
GASTEIGER

@<TRIPOS>ATOM
      1 N           7.0547   -0.2724    0.0000 N.3     1  UNL1       -0.2676
      2 N           4.5274    0.8518    0.0000 N.ar    1  UNL1       -0.3556
      3 C           6.3518    0.4963    0.0000 C.3     1  UNL1        0.0957
      4 C           5.3364    0.2640    0.0000 C.ar    1  UNL1        0.0443
      5 C           5.0274   -0.6871    0.0000 C.ar    1  UNL1       -0.0067
      6 C           5.7123   -1.4718    0.0000 C.3     1  UNL1        0.0449
      7 C           6.7328   -1.2631    0.0000 C.3     1  UNL1        0.0772
      8 C           4.0274   -0.6871    0.0000 C.ar    1  UNL1        0.0128
      9 C           3.7183    0.2640    0.0000 C.ar    1  UNL1        0.0561
     10 C           6.6498    1.4508    0.0000 C.3     1  UNL1        0.0238
     11 C           8.0321   -0.0608    0.0000 C.3     1  UNL1        0.0899
     12 C           3.3424   -1.4718    0.0000 C.ar    1  UNL1        0.0012
     13 C           2.7029    0.4963    0.0000 C.ar    1  UNL1        0.0169
     14 C           2.3219   -1.2631    0.0000 C.ar    1  UNL1        0.0001
     15 C           2.0000   -0.2724    0.0000 C.ar    1  UNL1        0.0015
     16 H           4.5274    1.4718    0.0000 H       1  UNL1        0.1657
@<TRIPOS>BOND
     1     1     3    1
     2     1     7    1
     3     1    11    1
     4     2     4   ar
     5     2     9   ar
     6     2    16    1
     7     3     4    1
     8     3    10    1
     9     4     5   ar
    10     5     6    1
    11     5     8   ar
    12     6     7    1
    13     8     9   ar
    14     8    12   ar
    15     9    13   ar
    16    12    14   ar
    17    13    15   ar
    18    14    15   ar
