@<TRIPOS>MOLECULE
IMPHY011390
 48 53 0 0 0
SMALL
GASTEIGER

@<TRIPOS>ATOM
      1 O           2.5820   -1.5560    0.0000 O.co2   1  UNL1       -0.7747
      2 O           5.6307    3.3801    0.0000 O.2     1  UNL1       -0.2749
      3 O           7.3422   -3.3801    0.0000 O.3     1  UNL1       -0.3910
      4 N           3.3369   -0.9003    0.0000 N.3     1  UNL1        0.2231
      5 N           4.9022    1.8109    0.0000 N.am    1  UNL1       -0.2627
      6 C           4.2620    0.3731    0.0000 C.3     1  UNL1        0.0675
      7 C           4.2620   -0.5997    0.0000 C.3     1  UNL1       -0.0084
      8 C           5.1045    0.8594    0.0000 C.3     1  UNL1        0.0676
      9 C           3.3369    0.6736    0.0000 C.3     1  UNL1        0.0043
     10 C           5.1045   -1.0861    0.0000 C.3     1  UNL1        0.0016
     11 C           5.9469   -0.5997    0.0000 C.3     1  UNL1        0.0131
     12 C           2.7652   -0.1133    0.0000 C.3     1  UNL1       -0.0310
     13 C           5.9469    0.3731    0.0000 C.2     1  UNL1       -0.0439
     14 C           3.5392    1.0239    0.0000 C.ar    1  UNL1       -0.0121
     15 C           4.1101   -1.6481    0.0000 C.3     1  UNL1       -0.0099
     16 C           5.3422   -1.6481    0.0000 C.2     1  UNL1       -0.0197
     17 C           3.9348    1.9126    0.0000 C.ar    1  UNL1        0.0409
     18 C           6.7459    0.9764    0.0000 C.2     1  UNL1       -0.0737
     19 C           5.7230    2.3844    0.0000 C.2     1  UNL1        0.2241
     20 C           2.5718    0.9223    0.0000 C.ar    1  UNL1       -0.0560
     21 C           6.6352    1.9715    0.0000 C.3     1  UNL1        0.0430
     22 C           5.8422   -2.5141    0.0000 C.2     1  UNL1       -0.0541
     23 C           3.3630    2.6995    0.0000 C.ar    1  UNL1       -0.0400
     24 C           2.0000    1.7092    0.0000 C.ar    1  UNL1       -0.0614
     25 C           2.3956    2.5979    0.0000 C.ar    1  UNL1       -0.0600
     26 C           6.8422   -2.5141    0.0000 C.3     1  UNL1        0.0628
     27 H           3.7928   -1.3084    0.0000 H       1  UNL1        0.0860
     28 H           5.7921    1.3590    0.0000 H       1  UNL1        0.0562
     29 H           3.5891    1.2400    0.0000 H       1  UNL1        0.0328
     30 H           2.8000    0.9836    0.0000 H       1  UNL1        0.0328
     31 H           4.7059   -1.5610    0.0000 H       1  UNL1        0.0329
     32 H           5.5030   -1.5610    0.0000 H       1  UNL1        0.0329
     33 H           6.7680   -0.8195    0.0000 H       1  UNL1        0.0395
     34 H           2.3044    0.3015    0.0000 H       1  UNL1        0.0814
     35 H           2.3044   -0.5282    0.0000 H       1  UNL1        0.0814
     36 H           3.5767   -1.9640    0.0000 H       1  UNL1        0.0863
     37 H           4.2739   -2.2460    0.0000 H       1  UNL1        0.0863
     38 H           7.3154    0.7312    0.0000 H       1  UNL1        0.0577
     39 H           2.3196    0.3559    0.0000 H       1  UNL1        0.0621
     40 H           7.2537    1.9296    0.0000 H       1  UNL1        0.0401
     41 H           6.7864    2.5728    0.0000 H       1  UNL1        0.0401
     42 H           5.5322   -3.0510    0.0000 H       1  UNL1        0.0596
     43 H           3.6152    3.2659    0.0000 H       1  UNL1        0.0636
     44 H           1.3834    1.6444    0.0000 H       1  UNL1        0.0618
     45 H           2.0312    3.0995    0.0000 H       1  UNL1        0.0618
     46 H           7.4248   -2.3020    0.0000 H       1  UNL1        0.0601
     47 H           6.7346   -1.9035    0.0000 H       1  UNL1        0.0601
     48 H           7.9622   -3.3801    0.0000 H       1  UNL1        0.2098
@<TRIPOS>UNITY_ATOM_ATTR
1 1
charge -1
4 1
charge 1
@<TRIPOS>BOND
     1     1     4    1
     2     2    19    2
     3     3    26    1
     4     3    48    1
     5     4     7    1
     6     4    12    1
     7     4    15    1
     8     5     8    1
     9     5    17    1
    10     5    19   am
    11     6     7    1
    12     6     8    1
    13     6     9    1
    14     6    14    1
    15     7    10    1
    16     7    27    1
    17     8    13    1
    18     8    28    1
    19     9    12    1
    20     9    29    1
    21     9    30    1
    22    10    11    1
    23    10    31    1
    24    10    32    1
    25    11    13    1
    26    11    16    1
    27    11    33    1
    28    12    34    1
    29    12    35    1
    30    13    18    2
    31    14    17   ar
    32    14    20   ar
    33    15    16    1
    34    15    36    1
    35    15    37    1
    36    16    22    2
    37    17    23   ar
    38    18    21    1
    39    18    38    1
    40    19    21    1
    41    20    24   ar
    42    20    39    1
    43    21    40    1
    44    21    41    1
    45    22    26    1
    46    22    42    1
    47    23    25   ar
    48    23    43    1
    49    24    25   ar
    50    24    44    1
    51    25    45    1
    52    26    46    1
    53    26    47    1
