@<TRIPOS>MOLECULE
IMPHY016662
 37 39 0 0 0
SMALL
GASTEIGER

@<TRIPOS>ATOM
      1 O           6.4783   -0.8047    0.0000 O.2     1  UNL1       -0.4957
      2 O           2.9176   -2.0346    0.0000 O.2     1  UNL1       -0.2968
      3 C           3.8000   -0.5000    0.0000 C.3     1  UNL1        0.0360
      4 C           3.8000    0.5000    0.0000 C.3     1  UNL1       -0.0073
      5 C           5.5321    0.5000    0.0000 C.3     1  UNL1        0.0205
      6 C           4.6660   -1.0000    0.0000 C.3     1  UNL1       -0.0026
      7 C           5.5321   -0.5000    0.0000 C.3     1  UNL1        0.1068
      8 C           4.6660    1.0000    0.0000 C.3     1  UNL1       -0.0356
      9 C           2.9061    1.0347    0.0000 C.2     1  UNL1       -0.0722
     10 C           2.9061   -1.0347    0.0000 C.2     1  UNL1        0.1402
     11 C           3.8000   -1.5000    0.0000 C.3     1  UNL1       -0.0522
     12 C           6.4783    0.8047    0.0000 C.2     1  UNL1       -0.0318
     13 C           2.0000    0.5208    0.0000 C.3     1  UNL1       -0.0250
     14 C           2.0000   -0.5208    0.0000 C.3     1  UNL1        0.0101
     15 C           7.0619    0.0000    0.0000 C.2     1  UNL1        0.0843
     16 C           6.7889    1.7552    0.0000 C.3     1  UNL1       -0.0403
     17 C           2.9176    2.0346    0.0000 C.2     1  UNL1       -0.0991
     18 H           3.8048    1.1200    0.0000 H       1  UNL1        0.0355
     19 H           5.5977    1.1165    0.0000 H       1  UNL1        0.0383
     20 H           4.2675   -1.4750    0.0000 H       1  UNL1        0.0310
     21 H           5.0646   -1.4750    0.0000 H       1  UNL1        0.0310
     22 H           5.5977   -1.1165    0.0000 H       1  UNL1        0.0739
     23 H           5.0646    1.4750    0.0000 H       1  UNL1        0.0278
     24 H           4.2675    1.4750    0.0000 H       1  UNL1        0.0278
     25 H           3.1800   -1.5000    0.0000 H       1  UNL1        0.0239
     26 H           3.8000   -2.1200    0.0000 H       1  UNL1        0.0239
     27 H           4.4200   -1.5000    0.0000 H       1  UNL1        0.0239
     28 H           1.7909    1.1045    0.0000 H       1  UNL1        0.0314
     29 H           1.3891    0.4147    0.0000 H       1  UNL1        0.0314
     30 H           1.3891   -0.4147    0.0000 H       1  UNL1        0.0345
     31 H           1.7909   -1.1045    0.0000 H       1  UNL1        0.0345
     32 H           7.6819   -0.0000    0.0000 H       1  UNL1        0.1023
     33 H           7.3783    1.5626    0.0000 H       1  UNL1        0.0275
     34 H           6.9816    2.3446    0.0000 H       1  UNL1        0.0275
     35 H           6.1996    1.9479    0.0000 H       1  UNL1        0.0275
     36 H           3.4581    2.3384    0.0000 H       1  UNL1        0.0534
     37 H           2.3843    2.3508    0.0000 H       1  UNL1        0.0534
@<TRIPOS>BOND
     1     1     7    1
     2     1    15    1
     3     2    10    2
     4     3     4    1
     5     3     6    1
     6     3    10    1
     7     3    11    1
     8     4     8    1
     9     4     9    1
    10     4    18    1
    11     5     7    1
    12     5     8    1
    13     5    12    1
    14     5    19    1
    15     6     7    1
    16     6    20    1
    17     6    21    1
    18     7    22    1
    19     8    23    1
    20     8    24    1
    21     9    13    1
    22     9    17    2
    23    10    14    1
    24    11    25    1
    25    11    26    1
    26    11    27    1
    27    12    15    2
    28    12    16    1
    29    13    14    1
    30    13    28    1
    31    13    29    1
    32    14    30    1
    33    14    31    1
    34    15    32    1
    35    16    33    1
    36    16    34    1
    37    16    35    1
    38    17    36    1
    39    17    37    1
