@<TRIPOS>MOLECULE
IMPHY003689
 17 16 0 0 0
SMALL
GASTEIGER

@<TRIPOS>ATOM
      1 O           6.3301   -0.1900    0.0000 O.2     1  UNL1       -0.3007
      2 C           2.8660    0.8100    0.0000 C.3     1  UNL1       -0.0376
      3 C           2.8660   -0.1900    0.0000 C.2     1  UNL1       -0.0878
      4 C           3.7320   -0.6900    0.0000 C.2     1  UNL1       -0.0811
      5 C           2.0000    1.3100    0.0000 C.3     1  UNL1       -0.0618
      6 C           4.5981   -0.1900    0.0000 C.3     1  UNL1        0.0209
      7 C           5.4641   -0.6900    0.0000 C.2     1  UNL1        0.1240
      8 H           3.4766    0.7023    0.0000 H       1  UNL1        0.0305
      9 H           3.0781    1.3926    0.0000 H       1  UNL1        0.0305
     10 H           2.3291   -0.5000    0.0000 H       1  UNL1        0.0569
     11 H           3.7320   -1.3100    0.0000 H       1  UNL1        0.0573
     12 H           2.3100    1.8469    0.0000 H       1  UNL1        0.0233
     13 H           1.4631    1.6200    0.0000 H       1  UNL1        0.0233
     14 H           1.6900    0.7731    0.0000 H       1  UNL1        0.0233
     15 H           4.9966    0.2849    0.0000 H       1  UNL1        0.0381
     16 H           4.1996    0.2849    0.0000 H       1  UNL1        0.0381
     17 H           5.4641   -1.3100    0.0000 H       1  UNL1        0.1029
@<TRIPOS>BOND
     1     1     7    2
     2     2     3    1
     3     2     5    1
     4     2     8    1
     5     2     9    1
     6     3     4    2
     7     3    10    1
     8     4     6    1
     9     4    11    1
    10     5    12    1
    11     5    13    1
    12     5    14    1
    13     6     7    1
    14     6    15    1
    15     6    16    1
    16     7    17    1
