@<TRIPOS>MOLECULE
IMPHY006736
 50 50 0 0 0
SMALL
GASTEIGER

@<TRIPOS>ATOM
      1 O          10.2942    0.6340    0.0000 O.3     1  UNL1       -0.3673
      2 O           3.7320   -0.0000    0.0000 O.3     1  UNL1       -0.4485
      3 O           2.8660   -1.5000    0.0000 O.2     1  UNL1       -0.2511
      4 C          10.7942    1.5000    0.0000 C.3     1  UNL1        0.0862
      5 C           9.7942    1.5000    0.0000 C.3     1  UNL1        0.0960
      6 C          11.6603    2.0000    0.0000 C.3     1  UNL1       -0.0241
      7 C          12.5263    1.5000    0.0000 C.3     1  UNL1       -0.0506
      8 C           8.9282    2.0000    0.0000 C.3     1  UNL1        0.0388
      9 C          13.3923    2.0000    0.0000 C.3     1  UNL1       -0.0530
     10 C          14.2583    1.5000    0.0000 C.3     1  UNL1       -0.0531
     11 C          15.1244    2.0000    0.0000 C.3     1  UNL1       -0.0533
     12 C           8.0622    1.5000    0.0000 C.1     1  UNL1       -0.0858
     13 C          15.9904    1.5000    0.0000 C.3     1  UNL1       -0.0559
     14 C          16.8564    2.0000    0.0000 C.3     1  UNL1       -0.0653
     15 C           7.1962    1.0000    0.0000 C.1     1  UNL1       -0.0146
     16 C           6.3301    0.5000    0.0000 C.1     1  UNL1       -0.0112
     17 C           4.5981   -0.5000    0.0000 C.3     1  UNL1        0.1637
     18 C           4.5981   -1.5000    0.0000 C.3     1  UNL1       -0.0070
     19 C           5.4641   -0.0000    0.0000 C.1     1  UNL1       -0.0443
     20 C           5.4641   -2.0000    0.0000 C.3     1  UNL1       -0.0610
     21 C           2.8660   -0.5000    0.0000 C.2     1  UNL1        0.3051
     22 C           2.0000   -0.0000    0.0000 C.3     1  UNL1        0.0333
     23 H          11.2326    1.0616    0.0000 H       1  UNL1        0.0622
     24 H           9.3558    1.0616    0.0000 H       1  UNL1        0.0631
     25 H          12.0588    2.4750    0.0000 H       1  UNL1        0.0291
     26 H          11.2617    2.4750    0.0000 H       1  UNL1        0.0291
     27 H          12.1278    1.0250    0.0000 H       1  UNL1        0.0266
     28 H          12.9248    1.0250    0.0000 H       1  UNL1        0.0266
     29 H           9.3267    2.4750    0.0000 H       1  UNL1        0.0424
     30 H           8.5297    2.4750    0.0000 H       1  UNL1        0.0424
     31 H          13.7908    2.4750    0.0000 H       1  UNL1        0.0265
     32 H          12.9938    2.4750    0.0000 H       1  UNL1        0.0265
     33 H          13.8598    1.0250    0.0000 H       1  UNL1        0.0265
     34 H          14.6569    1.0250    0.0000 H       1  UNL1        0.0265
     35 H          15.5229    2.4750    0.0000 H       1  UNL1        0.0265
     36 H          14.7258    2.4750    0.0000 H       1  UNL1        0.0265
     37 H          15.5919    1.0250    0.0000 H       1  UNL1        0.0263
     38 H          16.3889    1.0250    0.0000 H       1  UNL1        0.0263
     39 H          17.1664    1.4631    0.0000 H       1  UNL1        0.0230
     40 H          17.3933    2.3100    0.0000 H       1  UNL1        0.0230
     41 H          16.5464    2.5369    0.0000 H       1  UNL1        0.0230
     42 H           4.5981    0.1200    0.0000 H       1  UNL1        0.0875
     43 H           3.9875   -1.3923    0.0000 H       1  UNL1        0.0308
     44 H           4.3860   -2.0826    0.0000 H       1  UNL1        0.0308
     45 H           5.1541   -2.5369    0.0000 H       1  UNL1        0.0231
     46 H           6.0010   -2.3100    0.0000 H       1  UNL1        0.0231
     47 H           5.7741   -1.4631    0.0000 H       1  UNL1        0.0231
     48 H           2.3100    0.5369    0.0000 H       1  UNL1        0.0342
     49 H           1.4631    0.3100    0.0000 H       1  UNL1        0.0342
     50 H           1.6900   -0.5369    0.0000 H       1  UNL1        0.0342
@<TRIPOS>BOND
     1     1     4    1
     2     1     5    1
     3     2    17    1
     4     2    21    1
     5     3    21    2
     6     4     5    1
     7     4     6    1
     8     4    23    1
     9     5     8    1
    10     5    24    1
    11     6     7    1
    12     6    25    1
    13     6    26    1
    14     7     9    1
    15     7    27    1
    16     7    28    1
    17     8    12    1
    18     8    29    1
    19     8    30    1
    20     9    10    1
    21     9    31    1
    22     9    32    1
    23    10    11    1
    24    10    33    1
    25    10    34    1
    26    11    13    1
    27    11    35    1
    28    11    36    1
    29    12    15    3
    30    13    14    1
    31    13    37    1
    32    13    38    1
    33    14    39    1
    34    14    40    1
    35    14    41    1
    36    15    16    1
    37    16    19    3
    38    17    18    1
    39    17    19    1
    40    17    42    1
    41    18    20    1
    42    18    43    1
    43    18    44    1
    44    20    45    1
    45    20    46    1
    46    20    47    1
    47    21    22    1
    48    22    48    1
    49    22    49    1
    50    22    50    1
