@<TRIPOS>MOLECULE
IMPHY010368
 73 77 0 0 0
SMALL
GASTEIGER

@<TRIPOS>ATOM
      1 O           9.5338    2.4940    0.0000 O.3     1  UNL1       -0.3649
      2 O           6.9301    2.0241    0.0000 O.3     1  UNL1       -0.3865
      3 O           6.9532    4.0240    0.0000 O.3     1  UNL1       -0.3865
      4 O           8.6967    5.0039    0.0000 O.3     1  UNL1       -0.3865
      5 O           6.8671   -2.0100    0.0000 O.3     1  UNL1       -0.4601
      6 O           5.1350   -2.0100    0.0000 O.3     1  UNL1       -0.3313
      7 O          10.4286    4.9838    0.0000 O.3     1  UNL1       -0.3924
      8 O           6.8671   -4.0100    0.0000 O.3     1  UNL1       -0.3829
      9 O           5.1350   -5.0100    0.0000 O.3     1  UNL1       -0.3864
     10 O           3.4030   -4.0100    0.0000 O.3     1  UNL1       -0.3865
     11 O           8.6158   -1.9957    0.0000 O.2     1  UNL1       -0.2864
     12 O          10.3636   -2.0505    0.0000 O.3     1  UNL1       -0.5060
     13 O           2.5369   -2.5100    0.0000 O.3     1  UNL1       -0.3924
     14 O          13.0428    0.4808    0.0000 O.3     1  UNL1       -0.3904
     15 C           8.6620    2.0041    0.0000 C.3     1  UNL1        0.0983
     16 C           8.6504    1.0041    0.0000 C.3     1  UNL1        0.0395
     17 C           7.8018    2.5140    0.0000 C.3     1  UNL1        0.1104
     18 C           7.8134    3.5140    0.0000 C.3     1  UNL1        0.1118
     19 C           8.6851    4.0039    0.0000 C.3     1  UNL1        0.1117
     20 C           9.5453    3.4940    0.0000 C.3     1  UNL1        0.1104
     21 C           7.7787    0.5142    0.0000 C.ar    1  UNL1       -0.0231
     22 C           9.5106    0.4941    0.0000 C.ar    1  UNL1       -0.0227
     23 C           7.7671   -0.4858    0.0000 C.ar    1  UNL1        0.0679
     24 C           9.4991   -0.5058    0.0000 C.ar    1  UNL1        0.0676
     25 C          10.4171    3.9839    0.0000 C.3     1  UNL1        0.0729
     26 C           8.6273   -0.9957    0.0000 C.2     1  UNL1        0.2007
     27 C          10.4107    1.0184    0.0000 C.ar    1  UNL1       -0.0516
     28 C           6.8910    1.0591    0.0000 C.ar    1  UNL1       -0.0570
     29 C           6.8671   -1.0100    0.0000 C.ar    1  UNL1        0.1351
     30 C           6.0010   -2.5100    0.0000 C.3     1  UNL1        0.2308
     31 C           6.0010   -3.5100    0.0000 C.3     1  UNL1        0.1454
     32 C           5.1350   -4.0100    0.0000 C.3     1  UNL1        0.1152
     33 C           4.2690   -3.5100    0.0000 C.3     1  UNL1        0.1120
     34 C           4.2690   -2.5100    0.0000 C.3     1  UNL1        0.1140
     35 C          10.3868   -1.0508    0.0000 C.ar    1  UNL1        0.1283
     36 C          11.3108    0.4941    0.0000 C.ar    1  UNL1       -0.0184
     37 C           5.9790    0.5558    0.0000 C.ar    1  UNL1       -0.0580
     38 C           5.9670   -0.4858    0.0000 C.ar    1  UNL1       -0.0191
     39 C          11.2987   -0.5474    0.0000 C.ar    1  UNL1       -0.0141
     40 C           3.4030   -2.0100    0.0000 C.3     1  UNL1        0.0731
     41 C          12.1806    0.9875    0.0000 C.3     1  UNL1        0.0694
     42 H           9.3932    1.5706    0.0000 H       1  UNL1        0.0632
     43 H           7.9193    1.4376    0.0000 H       1  UNL1        0.0424
     44 H           7.7946    1.8941    0.0000 H       1  UNL1        0.0646
     45 H           7.8206    4.1339    0.0000 H       1  UNL1        0.0647
     46 H           9.2256    4.3077    0.0000 H       1  UNL1        0.0647
     47 H          10.0786    3.1778    0.0000 H       1  UNL1        0.0646
     48 H          10.6224    3.3989    0.0000 H       1  UNL1        0.0584
     49 H          11.0288    4.0845    0.0000 H       1  UNL1        0.0584
     50 H          10.4107    1.6384    0.0000 H       1  UNL1        0.0624
     51 H           6.9053    1.6790    0.0000 H       1  UNL1        0.0621
     52 H           6.0010   -1.8900    0.0000 H       1  UNL1        0.1084
     53 H           6.0010   -4.1300    0.0000 H       1  UNL1        0.0683
     54 H           4.5981   -4.3200    0.0000 H       1  UNL1        0.0648
     55 H           6.3968    2.3403    0.0000 H       1  UNL1        0.2100
     56 H           3.7320   -3.2000    0.0000 H       1  UNL1        0.0647
     57 H           4.2690   -1.8900    0.0000 H       1  UNL1        0.0647
     58 H           6.9604    4.6439    0.0000 H       1  UNL1        0.2100
     59 H           8.1634    5.3200    0.0000 H       1  UNL1        0.2100
     60 H           5.4470    0.8740    0.0000 H       1  UNL1        0.0619
     61 H           5.4277   -0.7916    0.0000 H       1  UNL1        0.0654
     62 H          11.8308   -0.8657    0.0000 H       1  UNL1        0.0658
     63 H           3.8015   -1.5351    0.0000 H       1  UNL1        0.0584
     64 H           3.0044   -1.5351    0.0000 H       1  UNL1        0.0584
     65 H          10.9691    5.2876    0.0000 H       1  UNL1        0.2095
     66 H          12.5828    1.4593    0.0000 H       1  UNL1        0.0607
     67 H          11.7858    1.4655    0.0000 H       1  UNL1        0.0607
     68 H           6.8671   -4.6300    0.0000 H       1  UNL1        0.2102
     69 H           4.5981   -5.3200    0.0000 H       1  UNL1        0.2100
     70 H           3.4030   -4.6300    0.0000 H       1  UNL1        0.2100
     71 H          10.8933   -2.3728    0.0000 H       1  UNL1        0.2922
     72 H           2.0000   -2.2000    0.0000 H       1  UNL1        0.2095
     73 H          13.5821    0.7866    0.0000 H       1  UNL1        0.2098
@<TRIPOS>BOND
     1     1    15    1
     2     1    20    1
     3    17     2    1
     4     2    55    1
     5    18     3    1
     6     3    58    1
     7    19     4    1
     8     4    59    1
     9     5    29    1
    10    30     5    1
    11     6    30    1
    12     6    34    1
    13     7    25    1
    14     7    65    1
    15    31     8    1
    16     8    68    1
    17    32     9    1
    18     9    69    1
    19    33    10    1
    20    10    70    1
    21    11    26    2
    22    12    35    1
    23    12    71    1
    24    13    40    1
    25    13    72    1
    26    14    41    1
    27    14    73    1
    28    15    16    1
    29    15    17    1
    30    15    42    1
    31    16    21    1
    32    16    22    1
    33    16    43    1
    34    17    18    1
    35    17    44    1
    36    18    19    1
    37    18    45    1
    38    19    20    1
    39    19    46    1
    40    20    25    1
    41    20    47    1
    42    21    23   ar
    43    21    28   ar
    44    22    24   ar
    45    22    27   ar
    46    23    26    1
    47    23    29   ar
    48    24    26    1
    49    24    35   ar
    50    25    48    1
    51    25    49    1
    52    27    36   ar
    53    27    50    1
    54    28    37   ar
    55    28    51    1
    56    29    38   ar
    57    30    31    1
    58    30    52    1
    59    31    32    1
    60    31    53    1
    61    32    33    1
    62    32    54    1
    63    33    34    1
    64    33    56    1
    65    34    40    1
    66    34    57    1
    67    35    39   ar
    68    36    39   ar
    69    36    41    1
    70    37    38   ar
    71    37    60    1
    72    38    61    1
    73    39    62    1
    74    40    63    1
    75    40    64    1
    76    41    66    1
    77    41    67    1
