@<TRIPOS>MOLECULE
IMPHY002176
 87 92 0 0 0
SMALL
GASTEIGER

@<TRIPOS>ATOM
      1 O          10.3848    2.5322    0.0000 O.3     1  UNL1       -0.3454
      2 O           3.7320   -3.3934    0.0000 O.3     1  UNL1       -0.4610
      3 O          13.1401    2.9108    0.0000 O.3     1  UNL1       -0.3627
      4 O           8.7956    1.7260    0.0000 O.3     1  UNL1       -0.3667
      5 O           2.8718   -1.8901    0.0000 O.2     1  UNL1       -0.2512
      6 C           9.1251   -0.3411    0.0000 C.3     1  UNL1       -0.0197
      7 C           9.1251   -1.3411    0.0000 C.3     1  UNL1       -0.0051
      8 C          10.0713   -0.0363    0.0000 C.3     1  UNL1       -0.0273
      9 C           7.3931   -1.3411    0.0000 C.3     1  UNL1       -0.0137
     10 C           6.4831   -1.8479    0.0000 C.3     1  UNL1       -0.0217
     11 C           8.2591   -1.8411    0.0000 C.2     1  UNL1       -0.0634
     12 C           8.2591    0.1589    0.0000 C.3     1  UNL1       -0.0460
     13 C          10.0713   -1.6458    0.0000 C.3     1  UNL1       -0.0431
     14 C           6.4750   -2.8895    0.0000 C.3     1  UNL1       -0.0231
     15 C          10.6550   -0.8411    0.0000 C.3     1  UNL1       -0.0485
     16 C           7.3931   -0.3411    0.0000 C.3     1  UNL1       -0.0455
     17 C          10.3820    0.9142    0.0000 C.3     1  UNL1        0.0157
     18 C           5.5396   -3.4392    0.0000 C.3     1  UNL1        0.0058
     19 C           5.5562   -1.2838    0.0000 C.3     1  UNL1       -0.0434
     20 C           9.1251    0.6589    0.0000 C.3     1  UNL1       -0.0585
     21 C           7.3771   -3.4103    0.0000 C.3     1  UNL1       -0.0305
     22 C           9.1251   -2.3411    0.0000 C.3     1  UNL1       -0.0553
     23 C           8.2752   -2.8826    0.0000 C.2     1  UNL1       -0.0836
     24 C           4.6000   -2.8967    0.0000 C.3     1  UNL1        0.1084
     25 C          11.3336    1.2216    0.0000 C.3     1  UNL1       -0.0163
     26 C           6.4908   -0.8479    0.0000 C.3     1  UNL1       -0.0587
     27 C           4.6084   -1.8118    0.0000 C.3     1  UNL1       -0.0146
     28 C           9.7956    1.7242    0.0000 C.3     1  UNL1        0.1598
     29 C          11.3353    2.2216    0.0000 C.3     1  UNL1        0.0909
     30 C           5.0430   -4.3072    0.0000 C.3     1  UNL1       -0.0562
     31 C           6.0430   -4.3033    0.0000 C.3     1  UNL1       -0.0562
     32 C          12.1454    2.8080    0.0000 C.3     1  UNL1        0.1139
     33 C          12.5537    3.7208    0.0000 C.3     1  UNL1        0.0930
     34 C          13.3637    4.3072    0.0000 C.3     1  UNL1       -0.0335
     35 C          11.6408    4.1291    0.0000 C.3     1  UNL1       -0.0335
     36 C           2.8680   -2.8900    0.0000 C.2     1  UNL1        0.3042
     37 C           2.0000   -3.3867    0.0000 C.3     1  UNL1        0.0332
     38 H          10.9110    0.0956    0.0000 H       1  UNL1        0.0311
     39 H           8.1292   -0.9161    0.0000 H       1  UNL1        0.0351
     40 H           8.6576    0.6339    0.0000 H       1  UNL1        0.0271
     41 H           7.8606    0.6339    0.0000 H       1  UNL1        0.0271
     42 H           9.8203   -2.2127    0.0000 H       1  UNL1        0.0274
     43 H          10.6087   -1.9550    0.0000 H       1  UNL1        0.0274
     44 H           6.4783   -3.7395    0.0000 H       1  UNL1        0.0316
     45 H          11.1158   -1.2558    0.0000 H       1  UNL1        0.0268
     46 H          11.1158   -0.4263    0.0000 H       1  UNL1        0.0268
     47 H           7.1810    0.2416    0.0000 H       1  UNL1        0.0271
     48 H           6.7825   -0.4487    0.0000 H       1  UNL1        0.0271
     49 H          10.9820    0.3121    0.0000 H       1  UNL1        0.0353
     50 H           5.9644   -0.8172    0.0000 H       1  UNL1        0.0272
     51 H           5.1663   -0.8018    0.0000 H       1  UNL1        0.0272
     52 H           9.7451    0.6589    0.0000 H       1  UNL1        0.0235
     53 H           9.1251    1.2789    0.0000 H       1  UNL1        0.0235
     54 H           8.5051    0.6589    0.0000 H       1  UNL1        0.0235
     55 H           6.9798   -3.8863    0.0000 H       1  UNL1        0.0310
     56 H           7.7781   -3.8832    0.0000 H       1  UNL1        0.0310
     57 H           8.5051   -2.3411    0.0000 H       1  UNL1        0.0238
     58 H           9.1251   -2.9611    0.0000 H       1  UNL1        0.0238
     59 H           9.7451   -2.3411    0.0000 H       1  UNL1        0.0238
     60 H           8.8156   -3.1863    0.0000 H       1  UNL1        0.0572
     61 H           4.0648   -2.5836    0.0000 H       1  UNL1        0.0739
     62 H          11.4614    0.6149    0.0000 H       1  UNL1        0.0295
     63 H          11.9503    1.2853    0.0000 H       1  UNL1        0.0295
     64 H           7.1108   -0.8527    0.0000 H       1  UNL1        0.0235
     65 H           6.4956   -0.2280    0.0000 H       1  UNL1        0.0235
     66 H           5.8708   -0.8432    0.0000 H       1  UNL1        0.0235
     67 H           4.4038   -1.2265    0.0000 H       1  UNL1        0.0301
     68 H           3.9967   -1.9132    0.0000 H       1  UNL1        0.0301
     69 H           9.5151    2.2771    0.0000 H       1  UNL1        0.0910
     70 H          11.2038    3.0613    0.0000 H       1  UNL1        0.0624
     71 H           4.5048   -3.9992    0.0000 H       1  UNL1        0.0236
     72 H           4.7350   -4.8453    0.0000 H       1  UNL1        0.0236
     73 H           5.5811   -4.6151    0.0000 H       1  UNL1        0.0236
     74 H           5.5072   -4.6154    0.0000 H       1  UNL1        0.0236
     75 H           6.3550   -4.8391    0.0000 H       1  UNL1        0.0236
     76 H           6.5787   -3.9912    0.0000 H       1  UNL1        0.0236
     77 H          11.4857    3.3440    0.0000 H       1  UNL1        0.0651
     78 H           8.4866    2.2634    0.0000 H       1  UNL1        0.2125
     79 H          13.7273    3.8050    0.0000 H       1  UNL1        0.0258
     80 H          13.8659    4.6707    0.0000 H       1  UNL1        0.0258
     81 H          13.0001    4.8094    0.0000 H       1  UNL1        0.0258
     82 H          11.8940    4.6951    0.0000 H       1  UNL1        0.0258
     83 H          11.0749    4.3823    0.0000 H       1  UNL1        0.0258
     84 H          11.3877    3.5632    0.0000 H       1  UNL1        0.0258
     85 H           1.6921   -2.8486    0.0000 H       1  UNL1        0.0342
     86 H           1.4619   -3.6946    0.0000 H       1  UNL1        0.0342
     87 H           2.3079   -3.9248    0.0000 H       1  UNL1        0.0342
@<TRIPOS>BOND
     1     1    28    1
     2     1    29    1
     3    24     2    1
     4     2    36    1
     5     3    32    1
     6     3    33    1
     7    28     4    1
     8     4    78    1
     9     5    36    2
    10     6     7    1
    11     6     8    1
    12     6    12    1
    13     6    20    1
    14     7    11    1
    15     7    13    1
    16     7    22    1
    17     8    15    1
    18     8    17    1
    19     8    38    1
    20     9    10    1
    21     9    11    1
    22     9    16    1
    23     9    39    1
    24    10    14    1
    25    10    19    1
    26    10    26    1
    27    11    23    2
    28    12    16    1
    29    12    40    1
    30    12    41    1
    31    13    15    1
    32    13    42    1
    33    13    43    1
    34    14    18    1
    35    14    21    1
    36    14    44    1
    37    15    45    1
    38    15    46    1
    39    16    47    1
    40    16    48    1
    41    17    25    1
    42    17    28    1
    43    17    49    1
    44    18    24    1
    45    18    30    1
    46    18    31    1
    47    19    27    1
    48    19    50    1
    49    19    51    1
    50    20    52    1
    51    20    53    1
    52    20    54    1
    53    21    23    1
    54    21    55    1
    55    21    56    1
    56    22    57    1
    57    22    58    1
    58    22    59    1
    59    23    60    1
    60    24    27    1
    61    24    61    1
    62    25    29    1
    63    25    62    1
    64    25    63    1
    65    26    64    1
    66    26    65    1
    67    26    66    1
    68    27    67    1
    69    27    68    1
    70    28    69    1
    71    29    32    1
    72    29    70    1
    73    30    71    1
    74    30    72    1
    75    30    73    1
    76    31    74    1
    77    31    75    1
    78    31    76    1
    79    32    33    1
    80    32    77    1
    81    33    34    1
    82    33    35    1
    83    34    79    1
    84    34    80    1
    85    34    81    1
    86    35    82    1
    87    35    83    1
    88    35    84    1
    89    36    37    1
    90    37    85    1
    91    37    86    1
    92    37    87    1
