@<TRIPOS>MOLECULE
IMPHY002400
 56 62 0 0 0
SMALL
GASTEIGER

@<TRIPOS>ATOM
      1 C        2432.8000 2375.4800    0.0000 C.3     1  UNL1        0.0003
      2 C        2432.8000 2415.4800    0.0000 C.3     1  UNL1        0.0035
      3 C        2398.2600 2395.3300    0.0000 C.3     1  UNL1        0.0150
      4 C        2427.0500 2367.5400    0.0000 C.3     1  UNL1        0.0040
      5 C        2363.7200 2415.4800    0.0000 C.2     1  UNL1       -0.0464
      6 C        2329.1800 2395.3300    0.0000 C.3     1  UNL1        0.0585
      7 C        2329.1800 2355.0400    0.0000 C.3     1  UNL1        0.0996
      8 C        2363.7200 2334.7900    0.0000 C.3     1  UNL1        0.0114
      9 C        2398.2600 2355.0400    0.0000 C.3     1  UNL1        0.0043
     10 C        2329.1800 2315.0400    0.0000 C.2     1  UNL1        0.3642
     11 O        2294.5400 2294.9900    0.0000 O.co2   1  UNL1       -0.2457
     12 O        2363.8200 2294.9900    0.0000 O.co2   1  UNL1       -0.2457
     13 C        2294.6400 2334.7900    0.0000 C.3     1  UNL1        0.0112
     14 C        2260.0000 2355.0400    0.0000 C.3     1  UNL1        0.0030
     15 C        2260.0000 2395.3300    0.0000 C.3     1  UNL1        0.0285
     16 C        2294.6400 2415.4800    0.0000 C.3     1  UNL1        0.1560
     17 O        2294.6400 2455.4800    0.0000 O.3     1  UNL1       -0.2228
     18 C        2246.3000 2432.8500    0.0000 C.3     1  UNL1        0.0025
     19 C        2220.6900 2388.3900    0.0000 C.3     1  UNL1        0.0025
     20 C        2363.7200 2455.7800    0.0000 C.2     1  UNL1       -0.0345
     21 C        2398.2600 2475.9300    0.0000 C.3     1  UNL1        0.0254
     22 C        2432.8000 2455.7800    0.0000 C.3     1  UNL1        0.0047
     23 C        2467.3400 2475.9300    0.0000 C.3     1  UNL1        0.0029
     24 C        2432.7000 2495.8800    0.0000 C.3     1  UNL1        0.0001
     25 C        2501.8900 2455.7800    0.0000 C.3     1  UNL1        0.0024
     26 C        2501.8900 2415.4800    0.0000 C.3     1  UNL1        0.0001
     27 C        2467.3400 2395.3300    0.0000 C.3     1  UNL1        0.0003
     28 C        2536.4300 2475.9300    0.0000 C.3     1  UNL1        0.0276
     29 C        2550.1200 2438.3100    0.0000 C.3     1  UNL1        0.0025
     30 C        2575.8300 2482.8800    0.0000 C.3     1  UNL1        0.0025
     31 C        2536.4300 2516.2300    0.0000 C.3     1  UNL1        0.1479
     32 C        2501.8900 2536.3800    0.0000 C.3     1  UNL1        0.1790
     33 C        2467.3400 2516.2300    0.0000 C.3     1  UNL1        0.0354
     34 O        2501.8900 2576.3800    0.0000 O.3     1  UNL1       -0.2205
     35 O        2571.1700 2536.1800    0.0000 O.3     1  UNL1       -0.3285
     36 C        2605.8100 2516.2300    0.0000 C.3     1  UNL1        0.2662
     37 C        2640.3500 2536.1800    0.0000 C.3     1  UNL1        0.2066
     38 O        2640.3500 2585.0100    0.0000 O.3     1  UNL1       -0.3231
     39 C        2674.9900 2605.0600    0.0000 C.3     1  UNL1        0.2695
     40 C        2674.9900 2644.9600    0.0000 C.3     1  UNL1        0.2406
     41 O        2640.6500 2665.6100    0.0000 O.3     1  UNL1       -0.2149
     42 C        2709.6300 2665.0100    0.0000 C.3     1  UNL1        0.2197
     43 O        2709.6300 2705.0100    0.0000 O.3     1  UNL1       -0.2174
     44 C        2744.2700 2645.0600    0.0000 C.3     1  UNL1        0.2118
     45 C        2744.2700 2604.9600    0.0000 C.3     1  UNL1        0.1508
     46 O        2709.6300 2585.0100    0.0000 O.3     1  UNL1       -0.3284
     47 C        2778.5100 2584.4200    0.0000 C.3     1  UNL1        0.0350
     48 O        2779.3100 2664.4200    0.0000 O.3     1  UNL1       -0.2177
     49 C        2675.0900 2516.2300    0.0000 C.3     1  UNL1        0.2166
     50 O        2709.7300 2536.1800    0.0000 O.3     1  UNL1       -0.2175
     51 C        2675.0900 2476.2300    0.0000 C.3     1  UNL1        0.2143
     52 C        2640.3500 2456.1800    0.0000 C.3     1  UNL1        0.1835
     53 O        2605.8100 2476.2300    0.0000 O.3     1  UNL1       -0.3257
     54 C        2640.3500 2416.1800    0.0000 C.3     1  UNL1        0.2142
     55 O        2674.9900 2396.2300    0.0000 O.3     1  UNL1       -0.2176
     56 O        2709.7300 2456.1800    0.0000 O.3     1  UNL1       -0.2176
@<TRIPOS>BOND
     1     1     2    1
     2     2     3    1
     3     2    22    1
     4     2    27    1
     5     3     4    1
     6     3     5    1
     7     3     9    1
     8     5     6    1
     9     5    20    2
    10     6     7    1
    11     6    16    1
    12     7    10    1
    13     7    13    1
    14     8     7    1
    15     9     8    1
    16    10    11   ar
    17    10    12   ar
    18    13    14    1
    19    15    14    1
    20    15    18    1
    21    15    19    1
    22    16    15    1
    23    16    17    1
    24    21    20    1
    25    22    21    1
    26    22    23    1
    27    23    24    1
    28    23    25    1
    29    23    33    1
    30    25    28    1
    31    26    25    1
    32    27    26    1
    33    28    29    1
    34    28    30    1
    35    28    31    1
    36    31    35    1
    37    32    31    1
    38    32    34    1
    39    33    32    1
    40    35    36    1
    41    36    37    1
    42    36    53    1
    43    37    38    1
    44    37    49    1
    45    38    39    1
    46    39    40    1
    47    39    46    1
    48    40    41    1
    49    40    42    1
    50    42    43    1
    51    42    44    1
    52    44    48    1
    53    45    44    1
    54    45    47    1
    55    46    45    1
    56    49    50    1
    57    49    51    1
    58    51    56    1
    59    52    51    1
    60    52    54    1
    61    53    52    1
    62    54    55    1
