@<TRIPOS>MOLECULE
IMPHY016271
 41 40 0 0 0
SMALL
GASTEIGER

@<TRIPOS>ATOM
      1 O           8.9282    0.2500    0.0000 O.3     1  UNL1       -0.4644
      2 O           8.0622   -1.2500    0.0000 O.2     1  UNL1       -0.2509
      3 C           5.4641    0.2500    0.0000 C.3     1  UNL1       -0.0526
      4 C           4.5981   -0.2500    0.0000 C.3     1  UNL1       -0.0531
      5 C          10.6603    0.2500    0.0000 C.3     1  UNL1       -0.0098
      6 C           6.3301   -0.2500    0.0000 C.3     1  UNL1       -0.0430
      7 C           3.7320    0.2500    0.0000 C.3     1  UNL1       -0.0533
      8 C           7.1962    0.2500    0.0000 C.3     1  UNL1        0.0449
      9 C          11.5263   -0.2500    0.0000 C.3     1  UNL1       -0.0502
     10 C           9.7942   -0.2500    0.0000 C.3     1  UNL1        0.0950
     11 C           2.8660   -0.2500    0.0000 C.3     1  UNL1       -0.0559
     12 C          10.6603    1.2500    0.0000 C.3     1  UNL1       -0.0593
     13 C           8.0622   -0.2500    0.0000 C.2     1  UNL1        0.3071
     14 C          12.3923    0.2500    0.0000 C.3     1  UNL1       -0.0649
     15 C           2.0000    0.2500    0.0000 C.3     1  UNL1       -0.0653
     16 H           5.8626    0.7249    0.0000 H       1  UNL1        0.0265
     17 H           5.0656    0.7249    0.0000 H       1  UNL1        0.0265
     18 H           4.1996   -0.7249    0.0000 H       1  UNL1        0.0265
     19 H           4.9966   -0.7249    0.0000 H       1  UNL1        0.0265
     20 H          11.1972    0.5600    0.0000 H       1  UNL1        0.0331
     21 H           5.9316   -0.7249    0.0000 H       1  UNL1        0.0270
     22 H           6.7287   -0.7249    0.0000 H       1  UNL1        0.0270
     23 H           4.1306    0.7249    0.0000 H       1  UNL1        0.0265
     24 H           3.3335    0.7249    0.0000 H       1  UNL1        0.0265
     25 H           7.5947    0.7249    0.0000 H       1  UNL1        0.0377
     26 H           6.7976    0.7249    0.0000 H       1  UNL1        0.0377
     27 H          11.1278   -0.7249    0.0000 H       1  UNL1        0.0266
     28 H          11.9248   -0.7249    0.0000 H       1  UNL1        0.0266
     29 H           9.3957   -0.7249    0.0000 H       1  UNL1        0.0700
     30 H          10.1928   -0.7249    0.0000 H       1  UNL1        0.0700
     31 H           2.4675   -0.7249    0.0000 H       1  UNL1        0.0263
     32 H           3.2646   -0.7249    0.0000 H       1  UNL1        0.0263
     33 H          11.2803    1.2500    0.0000 H       1  UNL1        0.0233
     34 H          10.6603    1.8700    0.0000 H       1  UNL1        0.0233
     35 H          10.0403    1.2500    0.0000 H       1  UNL1        0.0233
     36 H          12.7023   -0.2869    0.0000 H       1  UNL1        0.0230
     37 H          12.9292    0.5600    0.0000 H       1  UNL1        0.0230
     38 H          12.0823    0.7869    0.0000 H       1  UNL1        0.0230
     39 H           2.3100    0.7869    0.0000 H       1  UNL1        0.0230
     40 H           1.4631    0.5600    0.0000 H       1  UNL1        0.0230
     41 H           1.6900   -0.2869    0.0000 H       1  UNL1        0.0230
@<TRIPOS>BOND
     1     1    10    1
     2     1    13    1
     3     2    13    2
     4     3     4    1
     5     3     6    1
     6     3    16    1
     7     3    17    1
     8     4     7    1
     9     4    18    1
    10     4    19    1
    11     5     9    1
    12     5    10    1
    13     5    12    1
    14     5    20    1
    15     6     8    1
    16     6    21    1
    17     6    22    1
    18     7    11    1
    19     7    23    1
    20     7    24    1
    21     8    13    1
    22     8    25    1
    23     8    26    1
    24     9    14    1
    25     9    27    1
    26     9    28    1
    27    10    29    1
    28    10    30    1
    29    11    15    1
    30    11    31    1
    31    11    32    1
    32    12    33    1
    33    12    34    1
    34    12    35    1
    35    14    36    1
    36    14    37    1
    37    14    38    1
    38    15    39    1
    39    15    40    1
    40    15    41    1
