@<TRIPOS>MOLECULE
IMPHY011929
 41 44 0 0 0
SMALL
GASTEIGER

@<TRIPOS>ATOM
      1 O          10.4473   -1.2518    0.0000 O.3     1  UNL1       -0.2231
      2 O          10.1248    0.1928    0.0000 O.3     1  UNL1       -0.2177
      3 O           5.3194   -0.2518    0.0000 O.2     1  UNL1       -0.2961
      4 O           8.8171    2.1982    0.0000 O.2     1  UNL1       -0.2888
      5 O           2.5405   -1.7126    0.0000 O.2     1  UNL1       -0.2838
      6 O           2.5244   -3.8042    0.0000 O.2     1  UNL1       -0.2876
      7 O          12.7312    3.0231    0.0000 O.3     1  UNL1       -0.4515
      8 O          12.3740    4.7179    0.0000 O.2     1  UNL1       -0.2501
      9 C           7.9174   -1.7518    0.0000 C.3     1  UNL1        0.0003
     10 C           7.9174   -0.7518    0.0000 C.3     1  UNL1        0.0118
     11 C           7.0514   -2.2518    0.0000 C.3     1  UNL1       -0.0082
     12 C           8.8637   -0.4471    0.0000 C.3     1  UNL1        0.0660
     13 C           6.1854   -1.7518    0.0000 C.3     1  UNL1        0.0557
     14 C           8.8637   -2.0566    0.0000 C.3     1  UNL1        0.0327
     15 C           9.4473   -1.2518    0.0000 C.3     1  UNL1        0.1547
     16 C           7.0514   -0.2518    0.0000 C.3     1  UNL1        0.0646
     17 C           6.1854   -0.7518    0.0000 C.2     1  UNL1        0.1502
     18 C           5.2754   -2.2587    0.0000 C.3     1  UNL1        0.0498
     19 C           7.9174   -2.7518    0.0000 C.3     1  UNL1       -0.0002
     20 C           7.0675   -3.2933    0.0000 C.3     1  UNL1        0.0219
     21 C           7.9174    0.2482    0.0000 C.3     1  UNL1        0.0006
     22 C           9.1743    0.5034    0.0000 C.3     1  UNL1        0.1834
     23 C           5.3194   -1.2518    0.0000 C.3     1  UNL1        0.0077
     24 C           5.2674   -3.3003    0.0000 C.2     1  UNL1       -0.0379
     25 C           6.1694   -3.8211    0.0000 C.2     1  UNL1       -0.0342
     26 C           4.3319   -3.8500    0.0000 C.3     1  UNL1        0.0738
     27 C           4.3486   -1.6946    0.0000 C.2     1  UNL1        0.0230
     28 C           8.2238    0.8141    0.0000 C.3     1  UNL1        0.0410
     29 C           9.4850    1.4539    0.0000 C.2     1  UNL1        0.2002
     30 C           3.3923   -3.3075    0.0000 C.2     1  UNL1        0.2139
     31 C           3.4007   -2.2225    0.0000 C.2     1  UNL1        0.2264
     32 C           3.8353   -4.7179    0.0000 C.3     1  UNL1        0.0119
     33 C           4.8353   -4.7141    0.0000 C.3     1  UNL1        0.0119
     34 C          10.4635    1.6602    0.0000 C.2     1  UNL1        0.0388
     35 C          10.7742    2.6107    0.0000 C.2     1  UNL1        0.0159
     36 C          11.7527    2.8169    0.0000 C.3     1  UNL1        0.1547
     37 C          11.5464    3.7954    0.0000 C.3     1  UNL1        0.0484
     38 C          11.9589    1.8384    0.0000 C.3     1  UNL1        0.0484
     39 C          13.0418    3.9736    0.0000 C.2     1  UNL1        0.3176
     40 C          14.0203    4.1799    0.0000 C.3     1  UNL1        0.1212
     41 H           7.7473   -2.6465    0.0000 H       1  UNL1        0.0326
@<TRIPOS>BOND
     1     1    15    1
     2     2    22    1
     3     3    17    2
     4     4    29    2
     5     5    31    1
     6     6    30    2
     7     7    36    1
     8     7    39    1
     9     8    39    2
    10     9    10    1
    11     9    11    1
    12     9    14    1
    13     9    19    1
    14    10    12    1
    15    10    16    1
    16    10    21    1
    17    11    13    1
    18    11    20    1
    19    11    41    1
    20    12    15    1
    21    12    22    1
    22    13    17    1
    23    13    18    1
    24    13    23    1
    25    14    15    1
    26    16    17    1
    27    18    24    1
    28    18    27    1
    29    20    25    1
    30    22    28    1
    31    22    29    1
    32    24    25    2
    33    24    26    1
    34    26    30    1
    35    26    32    1
    36    26    33    1
    37    27    31    2
    38    29    34    1
    39    30    31    1
    40    34    35    2
    41    35    36    1
    42    36    37    1
    43    36    38    1
    44    39    40    1
