@<TRIPOS>MOLECULE
IMPHY011496
 47 50 0 0 0
SMALL
GASTEIGER

@<TRIPOS>ATOM
      1 O           9.7082    0.7972    0.0000 O.3     1  UNL1       -0.3592
      2 O           9.0532    3.4789    0.0000 O.3     1  UNL1       -0.3885
      3 O           5.9670    1.2335    0.0000 O.2     1  UNL1       -0.4709
      4 O           6.8671   -0.2908    0.0000 O.3     1  UNL1       -0.3095
      5 O           8.5136   -0.8068    0.0000 O.3     1  UNL1       -0.3921
      6 O           5.1350   -0.2908    0.0000 O.3     1  UNL1       -0.3404
      7 O           6.8671   -2.2908    0.0000 O.3     1  UNL1       -0.3841
      8 O           5.1350   -3.2908    0.0000 O.3     1  UNL1       -0.3864
      9 O           3.4030   -2.2908    0.0000 O.3     1  UNL1       -0.3865
     10 O           2.5369   -0.7908    0.0000 O.3     1  UNL1       -0.3924
     11 C           8.7145    0.9135    0.0000 C.3     1  UNL1        0.1304
     12 C           9.3116    1.7157    0.0000 C.3     1  UNL1        0.1174
     13 C           7.7671    1.2335    0.0000 C.3     1  UNL1        0.0641
     14 C           7.7787    2.2335    0.0000 C.3     1  UNL1        0.0201
     15 C           8.7333    2.5315    0.0000 C.3     1  UNL1        0.0910
     16 C           6.8671    0.7092    0.0000 C.3     1  UNL1        0.2096
     17 C           8.1174    0.1114    0.0000 C.3     1  UNL1        0.0763
     18 C           6.8910    2.7784    0.0000 C.2     1  UNL1       -0.0434
     19 C           5.9790    2.2751    0.0000 C.2     1  UNL1        0.0843
     20 C           6.0010   -0.7908    0.0000 C.3     1  UNL1        0.1918
     21 C           6.0010   -1.7908    0.0000 C.3     1  UNL1        0.1342
     22 C           5.1350   -2.2908    0.0000 C.3     1  UNL1        0.1141
     23 C           4.2690   -0.7908    0.0000 C.3     1  UNL1        0.1130
     24 C           4.2690   -1.7908    0.0000 C.3     1  UNL1        0.1119
     25 C           3.4030   -0.2908    0.0000 C.3     1  UNL1        0.0730
     26 H          10.0526    2.1322    0.0000 H       1  UNL1        0.0652
     27 H           7.8527    0.3878    0.0000 H       1  UNL1        0.0398
     28 H           7.8838    3.0769    0.0000 H       1  UNL1        0.0375
     29 H           9.3467    2.6214    0.0000 H       1  UNL1        0.0626
     30 H           7.4046    0.4003    0.0000 H       1  UNL1        0.1060
     31 H           7.6919    0.5623    0.0000 H       1  UNL1        0.0587
     32 H           7.5995   -0.2294    0.0000 H       1  UNL1        0.0587
     33 H           6.9053    3.3983    0.0000 H       1  UNL1        0.0606
     34 H           9.6611    3.6008    0.0000 H       1  UNL1        0.2099
     35 H           5.4470    2.5933    0.0000 H       1  UNL1        0.1021
     36 H           6.0010   -0.1708    0.0000 H       1  UNL1        0.0939
     37 H           9.1294   -0.8788    0.0000 H       1  UNL1        0.2095
     38 H           6.0010   -2.4108    0.0000 H       1  UNL1        0.0671
     39 H           4.5981   -2.6008    0.0000 H       1  UNL1        0.0648
     40 H           4.2690   -0.1708    0.0000 H       1  UNL1        0.0647
     41 H           3.7320   -1.4808    0.0000 H       1  UNL1        0.0647
     42 H           3.8015    0.1842    0.0000 H       1  UNL1        0.0584
     43 H           3.0044    0.1842    0.0000 H       1  UNL1        0.0584
     44 H           6.8671   -2.9108    0.0000 H       1  UNL1        0.2101
     45 H           4.5981   -3.6008    0.0000 H       1  UNL1        0.2100
     46 H           3.4030   -2.9108    0.0000 H       1  UNL1        0.2100
     47 H           2.0000   -0.4808    0.0000 H       1  UNL1        0.2095
@<TRIPOS>BOND
     1     1    11    1
     2     1    12    1
     3    15     2    1
     4     2    34    1
     5     3    16    1
     6     3    19    1
     7    16     4    1
     8    20     4    1
     9     5    17    1
    10     5    37    1
    11     6    20    1
    12     6    23    1
    13    21     7    1
    14     7    44    1
    15    22     8    1
    16     8    45    1
    17    24     9    1
    18     9    46    1
    19    10    25    1
    20    10    47    1
    21    11    12    1
    22    11    13    1
    23    11    17    1
    24    12    15    1
    25    12    26    1
    26    13    14    1
    27    13    16    1
    28    13    27    1
    29    14    15    1
    30    14    18    1
    31    14    28    1
    32    15    29    1
    33    16    30    1
    34    17    31    1
    35    17    32    1
    36    18    19    2
    37    18    33    1
    38    19    35    1
    39    20    21    1
    40    20    36    1
    41    21    22    1
    42    21    38    1
    43    22    24    1
    44    22    39    1
    45    23    24    1
    46    23    25    1
    47    23    40    1
    48    24    41    1
    49    25    42    1
    50    25    43    1
