@<TRIPOS>MOLECULE
IMPHY006151
 23 23 0 0 0
SMALL
GASTEIGER

@<TRIPOS>ATOM
      1 O           2.8660    0.4400    0.0000 O.3     1  UNL1       -0.4943
      2 O           6.3301   -1.5600    0.0000 O.3     1  UNL1       -0.4951
      3 O           5.4641    1.9400    0.0000 O.3     1  UNL1       -0.4770
      4 O           3.7320    1.9400    0.0000 O.2     1  UNL1       -0.2450
      5 C           4.5981    0.4400    0.0000 C.ar    1  UNL1        0.1038
      6 C           3.7320   -0.0600    0.0000 C.ar    1  UNL1        0.1343
      7 C           5.4641   -1.0600    0.0000 C.ar    1  UNL1        0.1211
      8 C           5.4641   -0.0600    0.0000 C.ar    1  UNL1       -0.0024
      9 C           3.7320   -1.0600    0.0000 C.ar    1  UNL1       -0.0157
     10 C           4.5981   -1.5600    0.0000 C.ar    1  UNL1       -0.0165
     11 C           4.5981    1.4400    0.0000 C.2     1  UNL1        0.3405
     12 C           2.0000   -0.0600    0.0000 C.3     1  UNL1        0.0788
     13 C           6.3301   -2.5600    0.0000 C.3     1  UNL1        0.0788
     14 H           6.0010    0.2500    0.0000 H       1  UNL1        0.0663
     15 H           3.1951   -1.3700    0.0000 H       1  UNL1        0.0655
     16 H           4.5981   -2.1800    0.0000 H       1  UNL1        0.0655
     17 H           1.6900    0.4769    0.0000 H       1  UNL1        0.0660
     18 H           1.4631   -0.3700    0.0000 H       1  UNL1        0.0660
     19 H           2.3100   -0.5969    0.0000 H       1  UNL1        0.0660
     20 H           5.7101   -2.5600    0.0000 H       1  UNL1        0.0660
     21 H           6.3301   -3.1800    0.0000 H       1  UNL1        0.0660
     22 H           6.9501   -2.5600    0.0000 H       1  UNL1        0.0660
     23 H           5.4641    2.5600    0.0000 H       1  UNL1        0.2954
@<TRIPOS>BOND
     1     1     6    1
     2     1    12    1
     3     2     7    1
     4     2    13    1
     5     3    11    1
     6     3    23    1
     7     4    11    2
     8     5     6   ar
     9     5     8   ar
    10     5    11    1
    11     6     9   ar
    12     7     8   ar
    13     7    10   ar
    14     8    14    1
    15     9    10   ar
    16     9    15    1
    17    10    16    1
    18    12    17    1
    19    12    18    1
    20    12    19    1
    21    13    20    1
    22    13    21    1
    23    13    22    1
