@<TRIPOS>MOLECULE
IMPHY012481
 45 50 0 0 0
SMALL
GASTEIGER

@<TRIPOS>ATOM
      1 O           4.2375    0.3290    0.0000 O.3     1  UNL1       -0.3370
      2 O           3.9641   -2.7140    0.0000 O.3     1  UNL1       -0.3496
      3 O           2.9350   -0.8055    0.0000 O.3     1  UNL1       -0.3858
      4 O           2.0000    2.2295    0.0000 O.3     1  UNL1       -0.4526
      5 O           3.0453    3.5402    0.0000 O.3     1  UNL1       -0.4526
      6 N           6.4132   -0.2178    0.0000 N.3     1  UNL1       -0.2931
      7 C           5.5123   -0.6516    0.0000 C.3     1  UNL1        0.0363
      8 C           4.6113   -0.2178    0.0000 C.3     1  UNL1        0.0342
      9 C           5.3763   -1.6364    0.0000 C.3     1  UNL1        0.0231
     10 C           4.3980   -1.8130    0.0000 C.3     1  UNL1        0.1988
     11 C           3.9262   -0.9381    0.0000 C.3     1  UNL1        0.1174
     12 C           6.1224   -1.4364    0.0000 C.3     1  UNL1       -0.0325
     13 C           6.6358    0.7572    0.0000 C.3     1  UNL1        0.0300
     14 C           7.3667   -0.4990    0.0000 C.3     1  UNL1       -0.0004
     15 C           6.0123    1.5390    0.0000 C.3     1  UNL1        0.1000
     16 C           7.2268   -1.2965    0.0000 C.3     1  UNL1       -0.0385
     17 C           4.3888    0.7572    0.0000 C.ar    1  UNL1       -0.0305
     18 C           5.0123    1.5390    0.0000 C.ar    1  UNL1       -0.0103
     19 C           3.3565    0.8965    0.0000 C.ar    1  UNL1       -0.0122
     20 C           4.6467    2.5144    0.0000 C.ar    1  UNL1       -0.0102
     21 C           2.9685    1.8632    0.0000 C.ar    1  UNL1        0.1665
     22 C           3.6179    2.6776    0.0000 C.ar    1  UNL1        0.1666
     23 C           4.5274   -3.5402    0.0000 C.3     1  UNL1        0.0398
     24 C           2.0473    3.2639    0.0000 C.3     1  UNL1        0.2332
     25 H           3.7637   -0.2813    0.0000 H       1  UNL1        0.0394
     26 H           5.4217   -2.2547    0.0000 H       1  UNL1        0.0336
     27 H           5.9960   -1.6562    0.0000 H       1  UNL1        0.0336
     28 H           3.5738   -1.4482    0.0000 H       1  UNL1        0.0654
     29 H           5.5732   -1.7242    0.0000 H       1  UNL1        0.0284
     30 H           6.3082   -2.0280    0.0000 H       1  UNL1        0.0284
     31 H           7.1944    0.4882    0.0000 H       1  UNL1        0.0455
     32 H           7.0223    1.2419    0.0000 H       1  UNL1        0.0455
     33 H           7.9729   -0.6291    0.0000 H       1  UNL1        0.0427
     34 H           7.5196    0.1019    0.0000 H       1  UNL1        0.0427
     35 H           6.2813    2.0976    0.0000 H       1  UNL1        0.0660
     36 H           7.2430   -1.9163    0.0000 H       1  UNL1        0.0278
     37 H           7.8451   -1.3422    0.0000 H       1  UNL1        0.0278
     38 H           2.5566   -1.2967    0.0000 H       1  UNL1        0.2100
     39 H           2.9756    0.4073    0.0000 H       1  UNL1        0.0658
     40 H           5.0388    2.9946    0.0000 H       1  UNL1        0.0659
     41 H           4.0152   -3.8895    0.0000 H       1  UNL1        0.0525
     42 H           4.8767   -4.0525    0.0000 H       1  UNL1        0.0525
     43 H           5.0397   -3.1910    0.0000 H       1  UNL1        0.0525
     44 H           1.9456    3.8755    0.0000 H       1  UNL1        0.1166
     45 H           1.4284    3.2270    0.0000 H       1  UNL1        0.1166
@<TRIPOS>BOND
     1     1    10    1
     2     1    15    1
     3     2    10    1
     4     2    23    1
     5    11     3    1
     6     3    38    1
     7     4    21    1
     8     4    24    1
     9     5    22    1
    10     5    24    1
    11     6     7    1
    12     6    13    1
    13     6    14    1
    14     7     8    1
    15     7     9    1
    16     7    12    1
    17     8    11    1
    18     8    17    1
    19     8    25    1
    20     9    10    1
    21     9    26    1
    22     9    27    1
    23    10    11    1
    24    11    28    1
    25    12    16    1
    26    12    29    1
    27    12    30    1
    28    13    15    1
    29    13    31    1
    30    13    32    1
    31    14    16    1
    32    14    33    1
    33    14    34    1
    34    15    18    1
    35    15    35    1
    36    16    36    1
    37    16    37    1
    38    17    18   ar
    39    17    19   ar
    40    18    20   ar
    41    19    21   ar
    42    19    39    1
    43    20    22   ar
    44    20    40    1
    45    21    22   ar
    46    23    41    1
    47    23    42    1
    48    23    43    1
    49    24    44    1
    50    24    45    1
