@<TRIPOS>MOLECULE
IMPHY016061
 32 32 0 0 0
SMALL
GASTEIGER

@<TRIPOS>ATOM
      1 O           2.5369    0.0950    0.0000 O.3     1  UNL1       -0.3915
      2 O           5.1350    2.5950    0.0000 O.3     1  UNL1       -0.3947
      3 C           4.2690    0.0950    0.0000 C.3     1  UNL1       -0.0103
      4 C           3.4030   -0.4050    0.0000 C.3     1  UNL1        0.0586
      5 C           5.1350   -0.4050    0.0000 C.3     1  UNL1       -0.0473
      6 C           4.2690   -1.9050    0.0000 C.3     1  UNL1       -0.0415
      7 C           3.4030   -1.4050    0.0000 C.3     1  UNL1       -0.0240
      8 C           5.1350   -1.4050    0.0000 C.3     1  UNL1       -0.0500
      9 C           4.2690    1.0950    0.0000 C.3     1  UNL1       -0.0155
     10 C           4.2690   -2.9050    0.0000 C.3     1  UNL1       -0.0623
     11 C           5.1350    1.5950    0.0000 C.3     1  UNL1        0.0471
     12 C           3.4030    1.5950    0.0000 C.3     1  UNL1       -0.0600
     13 H           4.8059    0.4050    0.0000 H       1  UNL1        0.0329
     14 H           3.4030    0.2150    0.0000 H       1  UNL1        0.0596
     15 H           5.7456   -0.5127    0.0000 H       1  UNL1        0.0269
     16 H           5.3471    0.1776    0.0000 H       1  UNL1        0.0269
     17 H           4.8059   -2.2150    0.0000 H       1  UNL1        0.0299
     18 H           2.7924   -1.2973    0.0000 H       1  UNL1        0.0293
     19 H           3.1909   -1.9876    0.0000 H       1  UNL1        0.0293
     20 H           5.3471   -1.9876    0.0000 H       1  UNL1        0.0268
     21 H           5.7456   -1.2973    0.0000 H       1  UNL1        0.0268
     22 H           4.2690    1.7150    0.0000 H       1  UNL1        0.0324
     23 H           3.6490   -2.9050    0.0000 H       1  UNL1        0.0232
     24 H           4.2690   -3.5250    0.0000 H       1  UNL1        0.0232
     25 H           4.8890   -2.9050    0.0000 H       1  UNL1        0.0232
     26 H           5.3471    1.0124    0.0000 H       1  UNL1        0.0560
     27 H           5.7456    1.7027    0.0000 H       1  UNL1        0.0560
     28 H           3.7130    2.1319    0.0000 H       1  UNL1        0.0233
     29 H           2.8660    1.9050    0.0000 H       1  UNL1        0.0233
     30 H           3.0930    1.0581    0.0000 H       1  UNL1        0.0233
     31 H           2.0000   -0.2150    0.0000 H       1  UNL1        0.2098
     32 H           5.6720    2.9050    0.0000 H       1  UNL1        0.2094
@<TRIPOS>BOND
     1     4     1    1
     2     1    31    1
     3     2    11    1
     4     2    32    1
     5     3     4    1
     6     3     5    1
     7     3     9    1
     8     3    13    1
     9     4     7    1
    10     4    14    1
    11     5     8    1
    12     5    15    1
    13     5    16    1
    14     6     7    1
    15     6     8    1
    16     6    10    1
    17     6    17    1
    18     7    18    1
    19     7    19    1
    20     8    20    1
    21     8    21    1
    22     9    11    1
    23     9    12    1
    24     9    22    1
    25    10    23    1
    26    10    24    1
    27    10    25    1
    28    11    26    1
    29    11    27    1
    30    12    28    1
    31    12    29    1
    32    12    30    1
