@<TRIPOS>MOLECULE
IMPHY011590
 29 30 0 0 0
SMALL
GASTEIGER

@<TRIPOS>ATOM
      1 O           2.6176   -2.1937    0.0000 O.3     1  UNL1       -0.3912
      2 C           4.4130   -0.6953    0.0000 C.3     1  UNL1       -0.0007
      3 C           3.9352    1.2532    0.0000 C.3     1  UNL1       -0.0242
      4 C           4.6718    0.2706    0.0000 C.3     1  UNL1       -0.0329
      5 C           3.0403   -1.2874    0.0000 C.3     1  UNL1        0.0614
      6 C           5.8119   -1.2042    0.0000 C.3     1  UNL1       -0.0445
      7 C           2.6982   -0.3477    0.0000 C.3     1  UNL1       -0.0230
      8 C           6.0707   -0.2382    0.0000 C.3     1  UNL1       -0.0490
      9 C           4.1541   -1.6613    0.0000 C.3     1  UNL1       -0.0567
     10 C           4.0397    2.2477    0.0000 C.3     1  UNL1       -0.0590
     11 C           3.0216    1.6599    0.0000 C.3     1  UNL1       -0.0590
     12 H           4.8918    1.0916    0.0000 H       1  UNL1        0.0307
     13 H           3.4722   -1.7321    0.0000 H       1  UNL1        0.0599
     14 H           5.6170   -1.7927    0.0000 H       1  UNL1        0.0272
     15 H           6.4059   -1.3819    0.0000 H       1  UNL1        0.0272
     16 H           2.5040    0.2411    0.0000 H       1  UNL1        0.0293
     17 H           2.1125   -0.5509    0.0000 H       1  UNL1        0.0293
     18 H           6.6647   -0.4160    0.0000 H       1  UNL1        0.0268
     19 H           6.2656    0.3503    0.0000 H       1  UNL1        0.0268
     20 H           3.5553   -1.5008    0.0000 H       1  UNL1        0.0236
     21 H           3.9937   -2.2602    0.0000 H       1  UNL1        0.0236
     22 H           4.7530   -1.8217    0.0000 H       1  UNL1        0.0236
     23 H           4.6563    2.1829    0.0000 H       1  UNL1        0.0235
     24 H           4.1045    2.8643    0.0000 H       1  UNL1        0.0235
     25 H           3.4231    2.3125    0.0000 H       1  UNL1        0.0235
     26 H           3.2738    2.2263    0.0000 H       1  UNL1        0.0235
     27 H           2.4552    1.9121    0.0000 H       1  UNL1        0.0235
     28 H           2.7694    1.0935    0.0000 H       1  UNL1        0.0235
     29 H           2.0000   -2.2477    0.0000 H       1  UNL1        0.2098
@<TRIPOS>BOND
     1     5     1    1
     2     1    29    1
     3     2     3    1
     4     2     5    1
     5     2     6    1
     6     2     9    1
     7     3     4    1
     8     3    10    1
     9     3    11    1
    10     4     7    1
    11     4     8    1
    12     4    12    1
    13     5     7    1
    14     5    13    1
    15     6     8    1
    16     6    14    1
    17     6    15    1
    18     7    16    1
    19     7    17    1
    20     8    18    1
    21     8    19    1
    22     9    20    1
    23     9    21    1
    24     9    22    1
    25    10    23    1
    26    10    24    1
    27    10    25    1
    28    11    26    1
    29    11    27    1
    30    11    28    1
