@<TRIPOS>MOLECULE
IMPHY004136
 120 123 0 0 0
SMALL
GASTEIGER

@<TRIPOS>ATOM
      1 O           6.3301   11.4050    0.0000 O.3     1  UNL1       -0.3903
      2 O           2.0000  -11.0950    0.0000 O.3     1  UNL1       -0.3903
      3 N          11.5263   -1.5950    0.0000 N.3     1  UNL1       -0.2950
      4 N           7.1962    8.9050    0.0000 N.3     1  UNL1       -0.3083
      5 N           3.7320   -9.0950    0.0000 N.3     1  UNL1       -0.3083
      6 C          11.5263   -0.5950    0.0000 C.3     1  UNL1        0.0170
      7 C          10.6603   -0.0950    0.0000 C.3     1  UNL1       -0.0070
      8 C          12.4725   -0.2903    0.0000 C.3     1  UNL1       -0.0356
      9 C          12.4725   -1.8997    0.0000 C.3     1  UNL1       -0.0004
     10 C          13.0561   -1.0950    0.0000 C.3     1  UNL1       -0.0387
     11 C          10.6603   -2.0950    0.0000 C.3     1  UNL1        0.0203
     12 C          10.6603    0.9050    0.0000 C.3     1  UNL1       -0.0453
     13 C           9.7942   -0.5950    0.0000 C.2     1  UNL1       -0.0790
     14 C           9.7942   -1.5950    0.0000 C.2     1  UNL1       -0.0592
     15 C           9.7942    1.4050    0.0000 C.3     1  UNL1       -0.0525
     16 C           8.9282   -2.0950    0.0000 C.3     1  UNL1       -0.0305
     17 C           9.7942    2.4050    0.0000 C.3     1  UNL1       -0.0530
     18 C           8.9282   -3.0950    0.0000 C.3     1  UNL1       -0.0493
     19 C           8.9282    2.9050    0.0000 C.3     1  UNL1       -0.0531
     20 C           8.0622   -3.5950    0.0000 C.3     1  UNL1       -0.0528
     21 C           6.3301    8.4050    0.0000 C.3     1  UNL1        0.0080
     22 C           4.5981   -9.5950    0.0000 C.3     1  UNL1        0.0080
     23 C           8.9282    3.9050    0.0000 C.3     1  UNL1       -0.0531
     24 C           8.0622   -4.5950    0.0000 C.3     1  UNL1       -0.0530
     25 C           5.4641    8.9050    0.0000 C.3     1  UNL1       -0.0352
     26 C           7.1962    9.9050    0.0000 C.3     1  UNL1        0.0310
     27 C           4.5981  -10.5950    0.0000 C.3     1  UNL1       -0.0352
     28 C           2.8660   -9.5950    0.0000 C.3     1  UNL1        0.0310
     29 C           6.3301   10.4050    0.0000 C.3     1  UNL1        0.0703
     30 C           6.3301    7.4050    0.0000 C.3     1  UNL1       -0.0375
     31 C           5.4641    9.9050    0.0000 C.3     1  UNL1       -0.0240
     32 C           2.8660  -10.5950    0.0000 C.3     1  UNL1        0.0703
     33 C           3.7320  -11.0950    0.0000 C.3     1  UNL1       -0.0240
     34 C           5.4641   -9.0950    0.0000 C.3     1  UNL1       -0.0375
     35 C           8.0622    4.4050    0.0000 C.3     1  UNL1       -0.0531
     36 C           7.1962    6.9050    0.0000 C.3     1  UNL1       -0.0516
     37 C           7.1962   -5.0950    0.0000 C.3     1  UNL1       -0.0531
     38 C           8.0622    5.4050    0.0000 C.3     1  UNL1       -0.0531
     39 C           7.1962    5.9050    0.0000 C.3     1  UNL1       -0.0530
     40 C           5.4641   -8.0950    0.0000 C.3     1  UNL1       -0.0516
     41 C           7.1962   -6.0950    0.0000 C.3     1  UNL1       -0.0531
     42 C           6.3301   -7.5950    0.0000 C.3     1  UNL1       -0.0530
     43 C           6.3301   -6.5950    0.0000 C.3     1  UNL1       -0.0531
     44 C           8.0622   10.4050    0.0000 C.3     1  UNL1       -0.0473
     45 C           2.0000   -9.0950    0.0000 C.3     1  UNL1       -0.0473
     46 H          11.6162    0.2502    0.0000 H       1  UNL1        0.0468
     47 H          11.3964    0.3300    0.0000 H       1  UNL1        0.0358
     48 H          13.0099    0.0190    0.0000 H       1  UNL1        0.0281
     49 H          12.2215    0.2766    0.0000 H       1  UNL1        0.0281
     50 H          12.2215   -2.4666    0.0000 H       1  UNL1        0.0427
     51 H          13.0099   -2.2090    0.0000 H       1  UNL1        0.0427
     52 H          13.5170   -1.5097    0.0000 H       1  UNL1        0.0278
     53 H          13.5170   -0.6803    0.0000 H       1  UNL1        0.0278
     54 H          10.2617   -2.5700    0.0000 H       1  UNL1        0.0473
     55 H          11.0588   -2.5700    0.0000 H       1  UNL1        0.0473
     56 H          11.2708    0.7973    0.0000 H       1  UNL1        0.0271
     57 H          10.8723    1.4876    0.0000 H       1  UNL1        0.0271
     58 H           9.2573   -0.2850    0.0000 H       1  UNL1        0.0575
     59 H           9.1836    1.5127    0.0000 H       1  UNL1        0.0265
     60 H           9.5822    0.8224    0.0000 H       1  UNL1        0.0265
     61 H           8.7162   -1.5124    0.0000 H       1  UNL1        0.0310
     62 H           8.3176   -2.2027    0.0000 H       1  UNL1        0.0310
     63 H          10.4048    2.2973    0.0000 H       1  UNL1        0.0265
     64 H          10.0063    2.9876    0.0000 H       1  UNL1        0.0265
     65 H           9.1403   -3.6776    0.0000 H       1  UNL1        0.0268
     66 H           9.5388   -2.9873    0.0000 H       1  UNL1        0.0268
     67 H           8.3176    3.0127    0.0000 H       1  UNL1        0.0265
     68 H           8.7162    2.3224    0.0000 H       1  UNL1        0.0265
     69 H           7.8501   -3.0124    0.0000 H       1  UNL1        0.0265
     70 H           7.4516   -3.7027    0.0000 H       1  UNL1        0.0265
     71 H           7.0662    7.9800    0.0000 H       1  UNL1        0.0460
     72 H           4.5981   -8.7450    0.0000 H       1  UNL1        0.0460
     73 H           9.5388    3.7973    0.0000 H       1  UNL1        0.0265
     74 H           9.1403    4.4876    0.0000 H       1  UNL1        0.0265
     75 H           8.2742   -5.1776    0.0000 H       1  UNL1        0.0265
     76 H           8.6728   -4.4873    0.0000 H       1  UNL1        0.0265
     77 H           4.8535    9.0127    0.0000 H       1  UNL1        0.0281
     78 H           5.2520    8.3224    0.0000 H       1  UNL1        0.0281
     79 H           7.9323    9.4800    0.0000 H       1  UNL1        0.0483
     80 H           4.8101  -11.1776    0.0000 H       1  UNL1        0.0281
     81 H           5.2087  -10.4873    0.0000 H       1  UNL1        0.0281
     82 H           2.8660   -8.7450    0.0000 H       1  UNL1        0.0483
     83 H           7.0662   10.8300    0.0000 H       1  UNL1        0.0609
     84 H           5.7196    7.5127    0.0000 H       1  UNL1        0.0280
     85 H           6.1181    6.8224    0.0000 H       1  UNL1        0.0280
     86 H           5.2520   10.4876    0.0000 H       1  UNL1        0.0291
     87 H           4.8535    9.7973    0.0000 H       1  UNL1        0.0291
     88 H           2.8660  -11.4450    0.0000 H       1  UNL1        0.0609
     89 H           3.3335  -11.5699    0.0000 H       1  UNL1        0.0291
     90 H           4.1306  -11.5699    0.0000 H       1  UNL1        0.0291
     91 H           5.6762   -9.6776    0.0000 H       1  UNL1        0.0280
     92 H           6.0747   -8.9873    0.0000 H       1  UNL1        0.0280
     93 H           7.4516    4.5127    0.0000 H       1  UNL1        0.0265
     94 H           7.8501    3.8224    0.0000 H       1  UNL1        0.0265
     95 H           7.7331    8.5950    0.0000 H       1  UNL1        0.1225
     96 H           3.7320   -8.4750    0.0000 H       1  UNL1        0.1225
     97 H           7.8067    6.7973    0.0000 H       1  UNL1        0.0266
     98 H           7.4082    7.4876    0.0000 H       1  UNL1        0.0266
     99 H           6.9841   -4.5124    0.0000 H       1  UNL1        0.0265
    100 H           6.5856   -5.2027    0.0000 H       1  UNL1        0.0265
    101 H           8.6728    5.2973    0.0000 H       1  UNL1        0.0265
    102 H           8.2742    5.9876    0.0000 H       1  UNL1        0.0265
    103 H           6.5856    6.0127    0.0000 H       1  UNL1        0.0265
    104 H           6.9841    5.3224    0.0000 H       1  UNL1        0.0265
    105 H           5.2520   -7.5124    0.0000 H       1  UNL1        0.0266
    106 H           4.8535   -8.2027    0.0000 H       1  UNL1        0.0266
    107 H           7.4082   -6.6776    0.0000 H       1  UNL1        0.0265
    108 H           7.8067   -5.9873    0.0000 H       1  UNL1        0.0265
    109 H           6.5422   -8.1776    0.0000 H       1  UNL1        0.0265
    110 H           6.9407   -7.4873    0.0000 H       1  UNL1        0.0265
    111 H           6.1181   -6.0124    0.0000 H       1  UNL1        0.0265
    112 H           5.7196   -6.7027    0.0000 H       1  UNL1        0.0265
    113 H           8.3722    9.8681    0.0000 H       1  UNL1        0.0245
    114 H           8.5991   10.7150    0.0000 H       1  UNL1        0.0245
    115 H           7.7522   10.9419    0.0000 H       1  UNL1        0.0245
    116 H           2.3100   -8.5581    0.0000 H       1  UNL1        0.0245
    117 H           1.4631   -8.7850    0.0000 H       1  UNL1        0.0245
    118 H           1.6900   -9.6319    0.0000 H       1  UNL1        0.0245
    119 H           5.7932   11.7150    0.0000 H       1  UNL1        0.2098
    120 H           2.0000  -11.7150    0.0000 H       1  UNL1        0.2098
@<TRIPOS>BOND
     1     1    29    1
     2     1   119    1
     3     2    32    1
     4     2   120    1
     5     3     6    1
     6     3     9    1
     7     3    11    1
     8     4    21    1
     9     4    26    1
    10     4    95    1
    11     5    22    1
    12     5    28    1
    13     5    96    1
    14     6     7    1
    15     6     8    1
    16     6    46    1
    17     7    12    1
    18     7    13    1
    19     7    47    1
    20     8    10    1
    21     8    48    1
    22     8    49    1
    23     9    10    1
    24     9    50    1
    25     9    51    1
    26    10    52    1
    27    10    53    1
    28    11    14    1
    29    11    54    1
    30    11    55    1
    31    12    15    1
    32    12    56    1
    33    12    57    1
    34    13    14    2
    35    13    58    1
    36    14    16    1
    37    15    17    1
    38    15    59    1
    39    15    60    1
    40    16    18    1
    41    16    61    1
    42    16    62    1
    43    17    19    1
    44    17    63    1
    45    17    64    1
    46    18    20    1
    47    18    65    1
    48    18    66    1
    49    19    23    1
    50    19    67    1
    51    19    68    1
    52    20    24    1
    53    20    69    1
    54    20    70    1
    55    21    25    1
    56    21    30    1
    57    21    71    1
    58    22    27    1
    59    22    34    1
    60    22    72    1
    61    23    35    1
    62    23    73    1
    63    23    74    1
    64    24    37    1
    65    24    75    1
    66    24    76    1
    67    25    31    1
    68    25    77    1
    69    25    78    1
    70    26    29    1
    71    26    44    1
    72    26    79    1
    73    27    33    1
    74    27    80    1
    75    27    81    1
    76    28    32    1
    77    28    45    1
    78    28    82    1
    79    29    31    1
    80    29    83    1
    81    30    36    1
    82    30    84    1
    83    30    85    1
    84    31    86    1
    85    31    87    1
    86    32    33    1
    87    32    88    1
    88    33    89    1
    89    33    90    1
    90    34    40    1
    91    34    91    1
    92    34    92    1
    93    35    38    1
    94    35    93    1
    95    35    94    1
    96    36    39    1
    97    36    97    1
    98    36    98    1
    99    37    41    1
   100    37    99    1
   101    37   100    1
   102    38    39    1
   103    38   101    1
   104    38   102    1
   105    39   103    1
   106    39   104    1
   107    40    42    1
   108    40   105    1
   109    40   106    1
   110    41    43    1
   111    41   107    1
   112    41   108    1
   113    42    43    1
   114    42   109    1
   115    42   110    1
   116    43   111    1
   117    43   112    1
   118    44   113    1
   119    44   114    1
   120    44   115    1
   121    45   116    1
   122    45   117    1
   123    45   118    1
