@<TRIPOS>MOLECULE
IMPHY012623
 27 28 0 0 0
SMALL
GASTEIGER

@<TRIPOS>ATOM
      1 O           3.7320    1.3450    0.0000 O.3     1  UNL1       -0.3872
      2 C           5.4646   -0.6550    0.0000 C.3     1  UNL1       -0.0257
      3 C           4.5981   -0.1550    0.0000 C.3     1  UNL1       -0.0021
      4 C           4.5981   -1.1550    0.0000 C.3     1  UNL1       -0.0261
      5 C           3.7320    0.3450    0.0000 C.3     1  UNL1        0.0796
      6 C           3.7320   -1.6550    0.0000 C.3     1  UNL1       -0.0307
      7 C           5.9646   -1.5210    0.0000 C.3     1  UNL1       -0.0592
      8 C           5.9646    0.2110    0.0000 C.3     1  UNL1       -0.0592
      9 C           2.8660   -0.1550    0.0000 C.2     1  UNL1       -0.0482
     10 C           2.8660   -1.1550    0.0000 C.2     1  UNL1       -0.0823
     11 C           2.0000    0.3450    0.0000 C.3     1  UNL1       -0.0414
     12 H           4.9080    0.3820    0.0000 H       1  UNL1        0.0337
     13 H           4.9080   -1.6920    0.0000 H       1  UNL1        0.0313
     14 H           4.2690    0.6550    0.0000 H       1  UNL1        0.0643
     15 H           3.3335   -2.1300    0.0000 H       1  UNL1        0.0310
     16 H           4.1306   -2.1300    0.0000 H       1  UNL1        0.0310
     17 H           5.4277   -1.8310    0.0000 H       1  UNL1        0.0235
     18 H           6.2746   -2.0580    0.0000 H       1  UNL1        0.0235
     19 H           6.5016   -1.2110    0.0000 H       1  UNL1        0.0235
     20 H           6.5016   -0.0990    0.0000 H       1  UNL1        0.0235
     21 H           6.2746    0.7480    0.0000 H       1  UNL1        0.0235
     22 H           5.4277    0.5210    0.0000 H       1  UNL1        0.0235
     23 H           2.3291   -1.4650    0.0000 H       1  UNL1        0.0572
     24 H           3.1951    1.6550    0.0000 H       1  UNL1        0.2102
     25 H           2.3100    0.8819    0.0000 H       1  UNL1        0.0275
     26 H           1.4631    0.6550    0.0000 H       1  UNL1        0.0275
     27 H           1.6900   -0.1919    0.0000 H       1  UNL1        0.0275
@<TRIPOS>BOND
     1     1     5    1
     2     1    24    1
     3     2     3    1
     4     2     4    1
     5     2     7    1
     6     2     8    1
     7     3     4    1
     8     3     5    1
     9     3    12    1
    10     4     6    1
    11     4    13    1
    12     5     9    1
    13     5    14    1
    14     6    10    1
    15     6    15    1
    16     6    16    1
    17     7    17    1
    18     7    18    1
    19     7    19    1
    20     8    20    1
    21     8    21    1
    22     8    22    1
    23     9    10    2
    24     9    11    1
    25    10    23    1
    26    11    25    1
    27    11    26    1
    28    11    27    1
