@<TRIPOS>MOLECULE
IMPHY006518
 52 53 0 0 0
SMALL
GASTEIGER

@<TRIPOS>ATOM
      1 O           2.0949    0.1429    0.0000 O.3     1  UNL1       -0.4532
      2 O           5.2067    1.5760    0.0000 O.3     1  UNL1       -0.3870
      3 O           5.4300   -0.6900    0.0000 O.3     1  UNL1       -0.4510
      4 O           3.9212    1.0439    0.0000 O.3     1  UNL1       -0.3872
      5 O           2.0000   -1.6309    0.0000 O.2     1  UNL1       -0.2453
      6 O           7.1620   -0.6900    0.0000 O.2     1  UNL1       -0.2453
      7 C           3.6979    0.3100    0.0000 C.3     1  UNL1        0.0608
      8 C           4.5640    0.8100    0.0000 C.3     1  UNL1        0.1066
      9 C           2.8319    0.8100    0.0000 C.3     1  UNL1        0.1313
     10 C           5.4300    0.3100    0.0000 C.3     1  UNL1        0.1506
     11 C           3.4887   -0.6618    0.0000 C.2     1  UNL1        0.0390
     12 C           2.8319    1.8100    0.0000 C.2     1  UNL1       -0.0419
     13 C           6.2960    0.8100    0.0000 C.2     1  UNL1       -0.0340
     14 C           2.5000   -0.7649    0.0000 C.2     1  UNL1        0.3357
     15 C           3.6979    2.3100    0.0000 C.2     1  UNL1       -0.0447
     16 C           4.5640    1.8100    0.0000 C.3     1  UNL1        0.0795
     17 C           5.4300    2.3100    0.0000 C.3     1  UNL1       -0.0044
     18 C           6.2960    1.8100    0.0000 C.2     1  UNL1       -0.0787
     19 C           4.1566   -1.4061    0.0000 C.2     1  UNL1       -0.0882
     20 C           7.1620    0.3100    0.0000 C.3     1  UNL1       -0.0403
     21 C           3.6979    3.3100    0.0000 C.3     1  UNL1       -0.0412
     22 C           6.2960   -1.1900    0.0000 C.2     1  UNL1        0.3352
     23 C           6.2960   -2.1900    0.0000 C.2     1  UNL1        0.0294
     24 C           5.4300   -2.6900    0.0000 C.3     1  UNL1       -0.0333
     25 C           7.1620   -2.6900    0.0000 C.2     1  UNL1       -0.0774
     26 C           8.0280   -2.1900    0.0000 C.3     1  UNL1       -0.0461
     27 H           4.3849   -0.1905    0.0000 H       1  UNL1        0.0417
     28 H           4.0176    1.4611    0.0000 H       1  UNL1        0.0641
     29 H           2.0549    1.1547    0.0000 H       1  UNL1        0.0786
     30 H           6.1661   -0.1150    0.0000 H       1  UNL1        0.0809
     31 H           2.2950    2.1200    0.0000 H       1  UNL1        0.0609
     32 H           5.1104    1.1589    0.0000 H       1  UNL1        0.0643
     33 H           5.8285    2.7849    0.0000 H       1  UNL1        0.0336
     34 H           5.0315    2.7849    0.0000 H       1  UNL1        0.0336
     35 H           6.8329    2.1200    0.0000 H       1  UNL1        0.0574
     36 H           5.6817    1.1775    0.0000 H       1  UNL1        0.2100
     37 H           3.9640   -1.9954    0.0000 H       1  UNL1        0.0540
     38 H           4.7632   -1.2783    0.0000 H       1  UNL1        0.0540
     39 H           6.8520   -0.2269    0.0000 H       1  UNL1        0.0276
     40 H           7.6990    0.0000    0.0000 H       1  UNL1        0.0276
     41 H           7.4720    0.8469    0.0000 H       1  UNL1        0.0276
     42 H           4.3179    3.3100    0.0000 H       1  UNL1        0.0275
     43 H           3.6979    3.9300    0.0000 H       1  UNL1        0.0275
     44 H           3.0779    3.3100    0.0000 H       1  UNL1        0.0275
     45 H           3.4463    1.4425    0.0000 H       1  UNL1        0.2102
     46 H           5.1200   -2.1531    0.0000 H       1  UNL1        0.0280
     47 H           4.8930   -3.0000    0.0000 H       1  UNL1        0.0280
     48 H           5.7400   -3.2269    0.0000 H       1  UNL1        0.0280
     49 H           7.1620   -3.3100    0.0000 H       1  UNL1        0.0574
     50 H           8.3381   -2.7269    0.0000 H       1  UNL1        0.0272
     51 H           8.5650   -1.8800    0.0000 H       1  UNL1        0.0272
     52 H           7.7180   -1.6531    0.0000 H       1  UNL1        0.0272
@<TRIPOS>BOND
     1     1     9    1
     2     1    14    1
     3     2     8    1
     4     2    36    1
     5     3    10    1
     6     3    22    1
     7     4    16    1
     8     4    45    1
     9     5    14    2
    10     6    22    2
    11     7     8    1
    12     7     9    1
    13     7    11    1
    14     7    27    1
    15     8    10    1
    16     8    28    1
    17     9    12    1
    18     9    29    1
    19    10    13    1
    20    10    30    1
    21    11    14    1
    22    11    19    2
    23    12    15    2
    24    12    31    1
    25    13    18    2
    26    13    20    1
    27    15    16    1
    28    15    21    1
    29    16    17    1
    30    16    32    1
    31    17    18    1
    32    17    33    1
    33    17    34    1
    34    18    35    1
    35    19    37    1
    36    19    38    1
    37    20    39    1
    38    20    40    1
    39    20    41    1
    40    21    42    1
    41    21    43    1
    42    21    44    1
    43    22    23    1
    44    23    24    1
    45    23    25    2
    46    24    46    1
    47    24    47    1
    48    24    48    1
    49    25    26    1
    50    25    49    1
    51    26    50    1
    52    26    51    1
    53    26    52    1
