@<TRIPOS>MOLECULE
IMPHY010515
 37 42 0 0 0
SMALL
GASTEIGER

@<TRIPOS>ATOM
      1 CL          5.8533    8.9452    0.0000 Cl      1  UNL1        0.0000
      2 O           3.9750    4.6467    0.0000 O.3     2  UNL2       -0.4653
      3 O           9.3161    5.3599    0.0000 O.3     2  UNL2       -0.4698
      4 N           5.5712    2.5367    0.0000 N.ar    2  UNL2       -0.1650
      5 N           3.1182    1.4193    0.0000 N.ar    2  UNL2       -0.3487
      6 N           8.7759    2.0198    0.0000 N.ar    2  UNL2       -0.3519
      7 N           6.9243    4.0748    0.0000 N.ar    2  UNL2       -0.2369
      8 C           6.5933    2.3359    0.0000 C.3     2  UNL2        0.2929
      9 C           6.9228    1.3477    0.0000 C.3     2  UNL2        0.0851
     10 C           4.9021    1.7936    0.0000 C.ar    2  UNL2        0.2188
     11 C           6.2258    0.5737    0.0000 C.3     2  UNL2        0.0186
     12 C           5.2086    0.7981    0.0000 C.3     2  UNL2        0.0986
     13 C           3.9239    2.0015    0.0000 C.ar    2  UNL2        0.1196
     14 C           7.2538    3.0867    0.0000 C.ar    2  UNL2        0.1449
     15 C           3.6149    2.9525    0.0000 C.ar    2  UNL2        0.0626
     16 C           5.2622    3.4878    0.0000 C.ar    2  UNL2        0.3270
     17 C           8.2759    2.8859    0.0000 C.ar    2  UNL2        0.0798
     18 C           4.2840    3.6957    0.0000 C.ar    2  UNL2        0.2097
     19 C           2.6208    2.9500    0.0000 C.ar    2  UNL2        0.0203
     20 C           2.3145    2.0043    0.0000 C.ar    2  UNL2        0.0568
     21 C           8.9450    3.6290    0.0000 C.ar    2  UNL2        0.0539
     22 C           9.8585    3.2223    0.0000 C.ar    2  UNL2        0.0200
     23 C           9.7540    2.2278    0.0000 C.ar    2  UNL2        0.0567
     24 C           8.6384    4.6245    0.0000 C.ar    2  UNL2        0.1591
     25 C           1.9392    3.7295    0.0000 C.ar    2  UNL2        0.0016
     26 C           7.6213    4.8489    0.0000 C.ar    2  UNL2        0.1355
     27 C           1.3053    1.7725    0.0000 C.ar    2  UNL2        0.0170
     28 C          10.8035    3.6606    0.0000 C.ar    2  UNL2        0.0016
     29 C           0.9250    3.5211    0.0000 C.ar    2  UNL2        0.0001
     30 C          10.5872    1.6026    0.0000 C.ar    2  UNL2        0.0170
     31 C           0.6058    2.5360    0.0000 C.ar    2  UNL2        0.0015
     32 C          11.6509    3.0548    0.0000 C.ar    2  UNL2        0.0001
     33 C           4.6442    5.3899    0.0000 C.3     2  UNL2        0.2528
     34 C          11.5420    2.0189    0.0000 C.ar    2  UNL2        0.0015
     35 C           9.0181    6.3144    0.0000 C.3     2  UNL2        0.2525
     36 H           3.1171    0.7993    0.0000 H       2  UNL2        0.1661
     37 H           8.5237    1.4534    0.0000 H       2  UNL2        0.1660
@<TRIPOS>UNITY_ATOM_ATTR
1 1
charge -1
4 1
charge 1
@<TRIPOS>BOND
     1     2    18    1
     2     2    33    1
     3     3    24    1
     4     3    35    1
     5     4     8    1
     6     4    10   ar
     7     4    16   ar
     8     5    13   ar
     9     5    20   ar
    10     5    36    1
    11     6    17   ar
    12     6    23   ar
    13     6    37    1
    14     7    14   ar
    15     7    26   ar
    16     8     9    1
    17     8    14    1
    18     9    11    1
    19    10    12    1
    20    10    13   ar
    21    11    12    1
    22    13    15   ar
    23    14    17   ar
    24    15    18   ar
    25    15    19   ar
    26    16    18   ar
    27    17    21   ar
    28    19    20   ar
    29    19    25   ar
    30    20    27   ar
    31    21    22   ar
    32    21    24   ar
    33    22    23   ar
    34    22    28   ar
    35    23    30   ar
    36    24    26   ar
    37    25    29   ar
    38    27    31   ar
    39    28    32   ar
    40    29    31   ar
    41    30    34   ar
    42    32    34   ar
