@<TRIPOS>MOLECULE
IMPHY000588
 18 18 0 0 0
SMALL
GASTEIGER

@<TRIPOS>ATOM
      1 S           2.6723    0.3126    0.0000 S.3     1  UNL1       -0.0490
      2 O           3.7601   -2.0352    0.0000 O.2     1  UNL1       -0.4669
      3 O           4.0736    1.3307    0.0000 O.2     1  UNL1       -0.2852
      4 C           2.9511   -1.4474    0.0000 C.ar    1  UNL1        0.1155
      5 C           3.2601   -0.4964    0.0000 C.ar    1  UNL1        0.0559
      6 C           4.2601   -0.4964    0.0000 C.ar    1  UNL1       -0.0098
      7 C           2.0000   -1.7564    0.0000 C.3     1  UNL1       -0.0053
      8 C           4.5691   -1.4474    0.0000 C.ar    1  UNL1        0.0932
      9 C           3.0790    1.2262    0.0000 C.2     1  UNL1        0.1910
     10 C           2.4912    2.0352    0.0000 C.3     1  UNL1        0.0047
     11 H           4.6245    0.0052    0.0000 H       1  UNL1        0.0660
     12 H           1.8084   -1.1668    0.0000 H       1  UNL1        0.0308
     13 H           1.4103   -1.9480    0.0000 H       1  UNL1        0.0308
     14 H           2.1916   -2.3461    0.0000 H       1  UNL1        0.0308
     15 H           5.1588   -1.6390    0.0000 H       1  UNL1        0.1030
     16 H           2.9928    2.3996    0.0000 H       1  UNL1        0.0315
     17 H           2.1268    2.5368    0.0000 H       1  UNL1        0.0315
     18 H           1.9896    1.6708    0.0000 H       1  UNL1        0.0315
@<TRIPOS>BOND
     1     1     5    1
     2     1     9    1
     3     2     4   ar
     4     2     8   ar
     5     3     9    2
     6     4     5   ar
     7     4     7    1
     8     5     6   ar
     9     6     8   ar
    10     6    11    1
    11     7    12    1
    12     7    13    1
    13     7    14    1
    14     8    15    1
    15     9    10    1
    16    10    16    1
    17    10    17    1
    18    10    18    1
