@<TRIPOS>MOLECULE
IMPHY002223
 119 125 0 0 0
SMALL
GASTEIGER

@<TRIPOS>ATOM
      1 O          12.0509    5.1379    0.0000 O.3     1  UNL1       -0.3914
      2 O          10.2022    5.8565    0.0000 O.3     1  UNL1       -0.3917
      3 O          10.3312   -3.0064    0.0000 O.3     1  UNL1       -0.3451
      4 O           8.5991   -3.0064    0.0000 O.3     1  UNL1       -0.3405
      5 O          10.3312   -5.0064    0.0000 O.3     1  UNL1       -0.3378
      6 O           8.5991   -6.0064    0.0000 O.3     1  UNL1       -0.3864
      7 O           6.8671   -5.0064    0.0000 O.3     1  UNL1       -0.3865
      8 O           6.0010   -3.5064    0.0000 O.3     1  UNL1       -0.3461
      9 O          11.1972   -3.5064    0.0000 O.3     1  UNL1       -0.3431
     10 O          12.0632   -6.0064    0.0000 O.3     1  UNL1       -0.3841
     11 O          13.7953   -5.0064    0.0000 O.3     1  UNL1       -0.3864
     12 O           5.1350   -2.0064    0.0000 O.3     1  UNL1       -0.3431
     13 O          13.7953   -3.0064    0.0000 O.3     1  UNL1       -0.3866
     14 O           4.2690   -4.5064    0.0000 O.3     1  UNL1       -0.3841
     15 O           2.5369   -3.5064    0.0000 O.3     1  UNL1       -0.3864
     16 O           2.5369   -1.5064    0.0000 O.3     1  UNL1       -0.3866
     17 C          10.3604    3.1905    0.0000 C.3     1  UNL1       -0.0214
     18 C          11.2284    2.6938    0.0000 C.3     1  UNL1       -0.0295
     19 C          11.2322    1.6938    0.0000 C.3     1  UNL1       -0.0306
     20 C          10.3681    1.1905    0.0000 C.3     1  UNL1       -0.0285
     21 C          10.5659    4.1631    0.0000 C.3     1  UNL1        0.0164
     22 C           9.4963    2.6871    0.0000 C.3     1  UNL1       -0.0467
     23 C          10.3561    0.1489    0.0000 C.3     1  UNL1       -0.0078
     24 C          11.9628    3.3637    0.0000 C.3     1  UNL1       -0.0229
     25 C           9.5002    1.6872    0.0000 C.3     1  UNL1       -0.0486
     26 C          11.5542    4.2700    0.0000 C.3     1  UNL1        0.0612
     27 C          12.1442    1.1905    0.0000 C.3     1  UNL1       -0.0311
     28 C           9.4925    3.6871    0.0000 C.3     1  UNL1       -0.0589
     29 C          11.2562   -0.3754    0.0000 C.2     1  UNL1       -0.0648
     30 C           9.4062   -0.3754    0.0000 C.3     1  UNL1       -0.0413
     31 C           9.8952    4.9048    0.0000 C.3     1  UNL1        0.0581
     32 C          12.1562    0.1489    0.0000 C.2     1  UNL1       -0.0839
     33 C           9.4920    0.6523    0.0000 C.3     1  UNL1       -0.0556
     34 C          11.2687   -1.4603    0.0000 C.3     1  UNL1       -0.0047
     35 C           9.3936   -1.4603    0.0000 C.3     1  UNL1       -0.0254
     36 C          10.3312   -2.0064    0.0000 C.3     1  UNL1        0.0655
     37 C           8.9175    4.6948    0.0000 C.3     1  UNL1       -0.0386
     38 C           9.4651   -3.5064    0.0000 C.3     1  UNL1        0.1886
     39 C           9.4651   -4.5064    0.0000 C.3     1  UNL1        0.1406
     40 C           8.5991   -5.0064    0.0000 C.3     1  UNL1        0.1144
     41 C           7.7331   -3.5064    0.0000 C.3     1  UNL1        0.1134
     42 C           7.7331   -4.5064    0.0000 C.3     1  UNL1        0.1119
     43 C           6.8671   -3.0064    0.0000 C.3     1  UNL1        0.0796
     44 C          11.1972   -4.5064    0.0000 C.3     1  UNL1        0.1884
     45 C          12.0632   -5.0064    0.0000 C.3     1  UNL1        0.1341
     46 C          12.9292   -4.5064    0.0000 C.3     1  UNL1        0.1140
     47 C          12.0632   -3.0064    0.0000 C.3     1  UNL1        0.0873
     48 C          12.9292   -3.5064    0.0000 C.3     1  UNL1        0.1095
     49 C           5.1350   -3.0064    0.0000 C.3     1  UNL1        0.1879
     50 C           4.2690   -3.5064    0.0000 C.3     1  UNL1        0.1341
     51 C          12.0632   -2.0064    0.0000 C.3     1  UNL1       -0.0361
     52 C           3.4030   -3.0064    0.0000 C.3     1  UNL1        0.1140
     53 C           4.2690   -1.5064    0.0000 C.3     1  UNL1        0.0873
     54 C           3.4030   -2.0064    0.0000 C.3     1  UNL1        0.1095
     55 C           4.2690   -0.5064    0.0000 C.3     1  UNL1       -0.0361
     56 H          12.0067    2.3521    0.0000 H       1  UNL1        0.0310
     57 H          11.9634    2.1273    0.0000 H       1  UNL1        0.0310
     58 H          11.1026    0.7627    0.0000 H       1  UNL1        0.0312
     59 H          10.8685    4.9574    0.0000 H       1  UNL1        0.0356
     60 H           9.2820    3.2689    0.0000 H       1  UNL1        0.0271
     61 H           8.8862    2.5771    0.0000 H       1  UNL1        0.0271
     62 H          12.3302    2.8643    0.0000 H       1  UNL1        0.0293
     63 H          12.4981    3.6766    0.0000 H       1  UNL1        0.0293
     64 H           8.8892    1.7925    0.0000 H       1  UNL1        0.0268
     65 H           9.2904    1.1037    0.0000 H       1  UNL1        0.0268
     66 H          11.2147    4.7888    0.0000 H       1  UNL1        0.0597
     67 H          12.7562    1.0915    0.0000 H       1  UNL1        0.0310
     68 H          12.3465    1.7766    0.0000 H       1  UNL1        0.0310
     69 H           9.8004    4.2253    0.0000 H       1  UNL1        0.0235
     70 H           8.9544    3.9951    0.0000 H       1  UNL1        0.0235
     71 H           9.1846    3.1490    0.0000 H       1  UNL1        0.0235
     72 H           9.2039    0.2107    0.0000 H       1  UNL1        0.0274
     73 H           8.7941   -0.4744    0.0000 H       1  UNL1        0.0274
     74 H           9.4793    5.3647    0.0000 H       1  UNL1        0.0594
     75 H          12.6955   -0.1569    0.0000 H       1  UNL1        0.0572
     76 H           9.8041    1.1880    0.0000 H       1  UNL1        0.0238
     77 H           8.9563    0.9643    0.0000 H       1  UNL1        0.0238
     78 H           9.1799    0.1165    0.0000 H       1  UNL1        0.0238
     79 H          11.4845   -2.0415    0.0000 H       1  UNL1        0.0335
     80 H          11.8783   -1.3471    0.0000 H       1  UNL1        0.0335
     81 H           8.7840   -1.3471    0.0000 H       1  UNL1        0.0290
     82 H           9.1778   -2.0415    0.0000 H       1  UNL1        0.0290
     83 H          10.8687   -2.3154    0.0000 H       1  UNL1        0.0600
     84 H          12.6709    5.1403    0.0000 H       1  UNL1        0.2098
     85 H           8.7873    5.3010    0.0000 H       1  UNL1        0.0255
     86 H           8.3113    4.5646    0.0000 H       1  UNL1        0.0255
     87 H           9.0477    4.0886    0.0000 H       1  UNL1        0.0255
     88 H           9.7863    6.3164    0.0000 H       1  UNL1        0.2098
     89 H          10.0021   -3.8164    0.0000 H       1  UNL1        0.0938
     90 H           9.4651   -5.1264    0.0000 H       1  UNL1        0.0675
     91 H           8.0622   -5.3164    0.0000 H       1  UNL1        0.0648
     92 H           7.7331   -2.8864    0.0000 H       1  UNL1        0.0647
     93 H           7.1962   -4.1964    0.0000 H       1  UNL1        0.0647
     94 H           7.2656   -2.5314    0.0000 H       1  UNL1        0.0587
     95 H           6.4685   -2.5314    0.0000 H       1  UNL1        0.0587
     96 H          11.1972   -5.1264    0.0000 H       1  UNL1        0.0938
     97 H           8.0622   -6.3164    0.0000 H       1  UNL1        0.2100
     98 H           6.8671   -5.6264    0.0000 H       1  UNL1        0.2100
     99 H          12.6002   -5.3164    0.0000 H       1  UNL1        0.0671
    100 H          13.4662   -4.1964    0.0000 H       1  UNL1        0.0648
    101 H          11.5263   -2.6964    0.0000 H       1  UNL1        0.0621
    102 H          12.9292   -2.8864    0.0000 H       1  UNL1        0.0646
    103 H           5.1350   -3.6264    0.0000 H       1  UNL1        0.0937
    104 H          12.6002   -6.3164    0.0000 H       1  UNL1        0.2101
    105 H           3.7320   -3.8164    0.0000 H       1  UNL1        0.0671
    106 H          12.6832   -2.0064    0.0000 H       1  UNL1        0.0255
    107 H          12.0632   -1.3864    0.0000 H       1  UNL1        0.0255
    108 H          11.4432   -2.0064    0.0000 H       1  UNL1        0.0255
    109 H           2.8660   -2.6964    0.0000 H       1  UNL1        0.0648
    110 H          14.3322   -4.6964    0.0000 H       1  UNL1        0.2100
    111 H           4.8059   -1.1964    0.0000 H       1  UNL1        0.0621
    112 H           3.4030   -1.3864    0.0000 H       1  UNL1        0.0646
    113 H          14.3322   -3.3164    0.0000 H       1  UNL1        0.2100
    114 H           3.7320   -4.8164    0.0000 H       1  UNL1        0.2101
    115 H           4.8890   -0.5064    0.0000 H       1  UNL1        0.0255
    116 H           4.2690    0.1136    0.0000 H       1  UNL1        0.0255
    117 H           3.6490   -0.5064    0.0000 H       1  UNL1        0.0255
    118 H           2.0000   -3.1964    0.0000 H       1  UNL1        0.2100
    119 H           2.5369   -0.8864    0.0000 H       1  UNL1        0.2100
@<TRIPOS>BOND
     1    26     1    1
     2     1    84    1
     3    31     2    1
     4     2    88    1
     5    36     3    1
     6    38     3    1
     7     4    38    1
     8     4    41    1
     9    39     5    1
    10    44     5    1
    11    40     6    1
    12     6    97    1
    13    42     7    1
    14     7    98    1
    15     8    43    1
    16    49     8    1
    17     9    44    1
    18     9    47    1
    19    45    10    1
    20    10   104    1
    21    46    11    1
    22    11   110    1
    23    12    49    1
    24    12    53    1
    25    48    13    1
    26    13   113    1
    27    50    14    1
    28    14   114    1
    29    52    15    1
    30    15   118    1
    31    54    16    1
    32    16   119    1
    33    17    18    1
    34    17    21    1
    35    17    22    1
    36    17    28    1
    37    18    19    1
    38    18    24    1
    39    18    56    1
    40    19    20    1
    41    19    27    1
    42    19    57    1
    43    20    23    1
    44    20    25    1
    45    20    58    1
    46    21    26    1
    47    21    31    1
    48    21    59    1
    49    22    25    1
    50    22    60    1
    51    22    61    1
    52    23    29    1
    53    23    30    1
    54    23    33    1
    55    24    26    1
    56    24    62    1
    57    24    63    1
    58    25    64    1
    59    25    65    1
    60    26    66    1
    61    27    32    1
    62    27    67    1
    63    27    68    1
    64    28    69    1
    65    28    70    1
    66    28    71    1
    67    29    32    2
    68    29    34    1
    69    30    35    1
    70    30    72    1
    71    30    73    1
    72    31    37    1
    73    31    74    1
    74    32    75    1
    75    33    76    1
    76    33    77    1
    77    33    78    1
    78    34    36    1
    79    34    79    1
    80    34    80    1
    81    35    36    1
    82    35    81    1
    83    35    82    1
    84    36    83    1
    85    37    85    1
    86    37    86    1
    87    37    87    1
    88    38    39    1
    89    38    89    1
    90    39    40    1
    91    39    90    1
    92    40    42    1
    93    40    91    1
    94    41    42    1
    95    41    43    1
    96    41    92    1
    97    42    93    1
    98    43    94    1
    99    43    95    1
   100    44    45    1
   101    44    96    1
   102    45    46    1
   103    45    99    1
   104    46    48    1
   105    46   100    1
   106    47    48    1
   107    47    51    1
   108    47   101    1
   109    48   102    1
   110    49    50    1
   111    49   103    1
   112    50    52    1
   113    50   105    1
   114    51   106    1
   115    51   107    1
   116    51   108    1
   117    52    54    1
   118    52   109    1
   119    53    54    1
   120    53    55    1
   121    53   111    1
   122    54   112    1
   123    55   115    1
   124    55   116    1
   125    55   117    1
