@<TRIPOS>MOLECULE
IMPHY016072
 27 26 0 0 0
SMALL
GASTEIGER

@<TRIPOS>ATOM
      1 O           5.4641    0.2500    0.0000 O.3     1  UNL1       -0.4600
      2 O           6.3301   -1.2500    0.0000 O.2     1  UNL1       -0.2505
      3 C           7.1962    0.2500    0.0000 C.3     1  UNL1        0.0508
      4 C           8.0622   -0.2500    0.0000 C.3     1  UNL1       -0.0525
      5 C           7.1962    1.2500    0.0000 C.3     1  UNL1       -0.0525
      6 C           6.3301   -0.2500    0.0000 C.2     1  UNL1        0.3100
      7 C           4.5981   -0.2500    0.0000 C.3     1  UNL1        0.1133
      8 C           3.7320    0.2500    0.0000 C.2     1  UNL1       -0.0399
      9 C           3.7320    1.2500    0.0000 C.3     1  UNL1       -0.0406
     10 C           2.8660   -0.2500    0.0000 C.2     1  UNL1       -0.0849
     11 C           2.0000    0.2500    0.0000 C.3     1  UNL1       -0.0465
     12 H           6.6592    0.5600    0.0000 H       1  UNL1        0.0408
     13 H           7.7522   -0.7869    0.0000 H       1  UNL1        0.0237
     14 H           8.5991   -0.5600    0.0000 H       1  UNL1        0.0237
     15 H           8.3722    0.2869    0.0000 H       1  UNL1        0.0237
     16 H           7.8162    1.2500    0.0000 H       1  UNL1        0.0237
     17 H           7.1962    1.8700    0.0000 H       1  UNL1        0.0237
     18 H           6.5762    1.2500    0.0000 H       1  UNL1        0.0237
     19 H           4.1996   -0.7249    0.0000 H       1  UNL1        0.0745
     20 H           4.9966   -0.7249    0.0000 H       1  UNL1        0.0745
     21 H           4.3520    1.2500    0.0000 H       1  UNL1        0.0275
     22 H           3.7320    1.8700    0.0000 H       1  UNL1        0.0275
     23 H           3.1120    1.2500    0.0000 H       1  UNL1        0.0275
     24 H           2.8660   -0.8700    0.0000 H       1  UNL1        0.0570
     25 H           2.3100    0.7869    0.0000 H       1  UNL1        0.0272
     26 H           1.4631    0.5600    0.0000 H       1  UNL1        0.0272
     27 H           1.6900   -0.2869    0.0000 H       1  UNL1        0.0272
@<TRIPOS>BOND
     1     1     6    1
     2     1     7    1
     3     2     6    2
     4     3     4    1
     5     3     5    1
     6     3     6    1
     7     3    12    1
     8     4    13    1
     9     4    14    1
    10     4    15    1
    11     5    16    1
    12     5    17    1
    13     5    18    1
    14     7     8    1
    15     7    19    1
    16     7    20    1
    17     8     9    1
    18     8    10    2
    19     9    21    1
    20     9    22    1
    21     9    23    1
    22    10    11    1
    23    10    24    1
    24    11    25    1
    25    11    26    1
    26    11    27    1
