@<TRIPOS>MOLECULE
IMPHY012220
 33 35 0 0 0
SMALL
GASTEIGER

@<TRIPOS>ATOM
      1 O           3.9061    0.7500    0.0000 O.3     1  UNL1       -0.4808
      2 O           5.6660   -2.2846    0.0000 O.2     1  UNL1       -0.2669
      3 N           6.5320   -0.7846    0.0000 N.ar    1  UNL1       -0.3105
      4 C           3.0000    0.2362    0.0000 C.3     1  UNL1        0.1235
      5 C           4.8000    0.2154    0.0000 C.ar    1  UNL1        0.1431
      6 C           4.8000   -0.7846    0.0000 C.ar    1  UNL1        0.0816
      7 C           5.6660    0.7154    0.0000 C.ar    1  UNL1        0.0410
      8 C           3.0000   -0.8054    0.0000 C.2     1  UNL1       -0.0407
      9 C           6.5320    0.2154    0.0000 C.ar    1  UNL1        0.0552
     10 C           3.9061   -1.3193    0.0000 C.2     1  UNL1       -0.0461
     11 C           2.0000    0.2400    0.0000 C.3     1  UNL1       -0.0215
     12 C           2.5033    1.1041    0.0000 C.3     1  UNL1       -0.0215
     13 C           5.6660   -1.2846    0.0000 C.ar    1  UNL1        0.2622
     14 C           5.6500    1.7569    0.0000 C.ar    1  UNL1       -0.0491
     15 C           7.4420    0.7222    0.0000 C.ar    1  UNL1       -0.0374
     16 C           7.3981   -1.2846    0.0000 C.3     1  UNL1        0.0153
     17 C           6.5480    2.2846    0.0000 C.ar    1  UNL1       -0.0610
     18 C           7.4501    1.7638    0.0000 C.ar    1  UNL1       -0.0598
     19 H           2.4643   -1.1175    0.0000 H       1  UNL1        0.0611
     20 H           3.9132   -1.9392    0.0000 H       1  UNL1        0.0624
     21 H           2.0024    0.8600    0.0000 H       1  UNL1        0.0271
     22 H           1.3800    0.2424    0.0000 H       1  UNL1        0.0271
     23 H           1.9976   -0.3800    0.0000 H       1  UNL1        0.0271
     24 H           3.0415    1.4121    0.0000 H       1  UNL1        0.0271
     25 H           2.1954    1.6423    0.0000 H       1  UNL1        0.0271
     26 H           1.9652    0.7962    0.0000 H       1  UNL1        0.0271
     27 H           5.1095    2.0606    0.0000 H       1  UNL1        0.0625
     28 H           7.9754    0.4060    0.0000 H       1  UNL1        0.0638
     29 H           7.0881   -1.8216    0.0000 H       1  UNL1        0.0457
     30 H           7.9350   -1.5946    0.0000 H       1  UNL1        0.0457
     31 H           7.7081   -0.7477    0.0000 H       1  UNL1        0.0457
     32 H           6.5456    2.9046    0.0000 H       1  UNL1        0.0618
     33 H           7.9882    2.0717    0.0000 H       1  UNL1        0.0618
@<TRIPOS>BOND
     1     1     4    1
     2     1     5    1
     3     2    13    2
     4     3     9   ar
     5     3    13   ar
     6     3    16    1
     7     4     8    1
     8     4    11    1
     9     4    12    1
    10     5     6   ar
    11     5     7   ar
    12     6    10    1
    13     6    13   ar
    14     7     9   ar
    15     7    14   ar
    16     8    10    2
    17     8    19    1
    18     9    15   ar
    19    10    20    1
    20    11    21    1
    21    11    22    1
    22    11    23    1
    23    12    24    1
    24    12    25    1
    25    12    26    1
    26    14    17   ar
    27    14    27    1
    28    15    18   ar
    29    15    28    1
    30    16    29    1
    31    16    30    1
    32    16    31    1
    33    17    18   ar
    34    17    32    1
    35    18    33    1
