@<TRIPOS>MOLECULE
IMPHY008809
 56 59 0 0 0
SMALL
GASTEIGER

@<TRIPOS>ATOM
      1 O           7.9288   -1.4507    0.0000 O.3     1  UNL1       -0.3847
      2 O           9.1857   -1.7059    0.0000 O.3     1  UNL1       -0.3889
      3 O           7.0628    2.0493    0.0000 O.2     1  UNL1       -0.2967
      4 O           2.5357   -2.5030    0.0000 O.3     1  UNL1       -0.3915
      5 O           8.5179    2.5489    0.0000 O.2     1  UNL1       -0.2974
      6 C           7.9288   -0.4507    0.0000 C.3     1  UNL1        0.1078
      7 C           7.0628   -0.9507    0.0000 C.3     1  UNL1       -0.0013
      8 C           7.9288    0.5493    0.0000 C.3     1  UNL1        0.0670
      9 C           6.1968   -0.4507    0.0000 C.3     1  UNL1       -0.0194
     10 C           5.2868   -0.9575    0.0000 C.3     1  UNL1       -0.0074
     11 C           8.8750    0.8540    0.0000 C.3     1  UNL1        0.0344
     12 C           8.8750   -0.7554    0.0000 C.3     1  UNL1        0.0858
     13 C           6.1968    0.5493    0.0000 C.3     1  UNL1        0.0105
     14 C           9.4586    0.0493    0.0000 C.3     1  UNL1       -0.0136
     15 C           7.0628    1.0493    0.0000 C.2     1  UNL1        0.1430
     16 C           7.0789   -1.9922    0.0000 C.3     1  UNL1       -0.0286
     17 C           5.2787   -1.9991    0.0000 C.2     1  UNL1       -0.0648
     18 C           4.3599   -0.3935    0.0000 C.3     1  UNL1       -0.0413
     19 C           7.9288    1.5493    0.0000 C.3     1  UNL1       -0.0494
     20 C           6.1808   -2.5200    0.0000 C.2     1  UNL1       -0.0838
     21 C           5.2945    0.0424    0.0000 C.3     1  UNL1       -0.0556
     22 C           4.3433   -2.5489    0.0000 C.3     1  UNL1       -0.0051
     23 C           3.4120   -0.9214    0.0000 C.3     1  UNL1       -0.0258
     24 C           9.1857    1.8046    0.0000 C.2     1  UNL1        0.1345
     25 C           3.4037   -2.0064    0.0000 C.3     1  UNL1        0.0590
     26 C          10.1642    2.0108    0.0000 C.3     1  UNL1       -0.0058
     27 H           7.8022   -1.3700    0.0000 H       1  UNL1        0.0336
     28 H           6.9329   -0.0257    0.0000 H       1  UNL1        0.0317
     29 H           9.4875    0.9502    0.0000 H       1  UNL1        0.0388
     30 H           9.4875   -0.8516    0.0000 H       1  UNL1        0.0622
     31 H           5.9847    1.1319    0.0000 H       1  UNL1        0.0345
     32 H           5.5862    0.4416    0.0000 H       1  UNL1        0.0345
     33 H           9.9195   -0.3654    0.0000 H       1  UNL1        0.0298
     34 H           9.9195    0.4640    0.0000 H       1  UNL1        0.0298
     35 H           7.2969   -2.5726    0.0000 H       1  UNL1        0.0311
     36 H           7.6880   -1.8767    0.0000 H       1  UNL1        0.0311
     37 H           4.7681    0.0732    0.0000 H       1  UNL1        0.0274
     38 H           3.9700    0.0886    0.0000 H       1  UNL1        0.0274
     39 H           8.5488    1.5493    0.0000 H       1  UNL1        0.0240
     40 H           7.9288    2.1693    0.0000 H       1  UNL1        0.0240
     41 H           7.3088    1.5493    0.0000 H       1  UNL1        0.0240
     42 H           6.1832   -3.1399    0.0000 H       1  UNL1        0.0572
     43 H           5.9145    0.0377    0.0000 H       1  UNL1        0.0238
     44 H           5.2993    0.6624    0.0000 H       1  UNL1        0.0238
     45 H           4.6745    0.0472    0.0000 H       1  UNL1        0.0238
     46 H           8.4658   -1.7607    0.0000 H       1  UNL1        0.2103
     47 H           3.9460   -3.0248    0.0000 H       1  UNL1        0.0335
     48 H           4.7443   -3.0218    0.0000 H       1  UNL1        0.0335
     49 H           3.2075   -0.3361    0.0000 H       1  UNL1        0.0290
     50 H           2.8004   -1.0228    0.0000 H       1  UNL1        0.0290
     51 H           3.4025   -2.6264    0.0000 H       1  UNL1        0.0596
     52 H           9.7924   -1.8338    0.0000 H       1  UNL1        0.2099
     53 H          10.2921    1.4041    0.0000 H       1  UNL1        0.0306
     54 H          10.7709    2.1386    0.0000 H       1  UNL1        0.0306
     55 H          10.0364    2.6174    0.0000 H       1  UNL1        0.0306
     56 H           2.0000   -2.1910    0.0000 H       1  UNL1        0.2098
@<TRIPOS>BOND
     1     6     1    1
     2     1    46    1
     3    12     2    1
     4     2    52    1
     5     3    15    2
     6    25     4    1
     7     4    56    1
     8     5    24    2
     9     6     7    1
    10     6     8    1
    11     6    12    1
    12     7     9    1
    13     7    16    1
    14     7    27    1
    15     8    11    1
    16     8    15    1
    17     8    19    1
    18     9    10    1
    19     9    13    1
    20     9    28    1
    21    10    17    1
    22    10    18    1
    23    10    21    1
    24    11    14    1
    25    11    24    1
    26    11    29    1
    27    12    14    1
    28    12    30    1
    29    13    15    1
    30    13    31    1
    31    13    32    1
    32    14    33    1
    33    14    34    1
    34    16    20    1
    35    16    35    1
    36    16    36    1
    37    17    20    2
    38    17    22    1
    39    18    23    1
    40    18    37    1
    41    18    38    1
    42    19    39    1
    43    19    40    1
    44    19    41    1
    45    20    42    1
    46    21    43    1
    47    21    44    1
    48    21    45    1
    49    22    25    1
    50    22    47    1
    51    22    48    1
    52    23    25    1
    53    23    49    1
    54    23    50    1
    55    24    26    1
    56    25    51    1
    57    26    53    1
    58    26    54    1
    59    26    55    1
