@<TRIPOS>MOLECULE
IMPHY010799
 18 16 0 0 0
SMALL
GASTEIGER

@<TRIPOS>ATOM
      1 C           0.0000   -1.3265    0.0000 C.3     1  UNL1        0.0773
      2 C           1.1538   -1.9967    0.0000 C.2     1  UNL1        0.1737
      3 C           2.3007   -1.3265    0.0000 C.2     1  UNL1        0.0409
      4 C           3.4545   -1.9967    0.0000 C.2     1  UNL1        0.0484
      5 C           4.6083   -1.3265    0.0000 C.2     1  UNL1        0.2377
      6 C           5.7552   -1.9967    0.0000 C.2     1  UNL1        0.2760
      7 O           6.9090   -1.3265    0.0000 O.2     1  UNL1       -0.2796
      8 O           4.6083    0.0000    0.0000 O.2     1  UNL1       -0.2830
      9 O           1.1538   -3.3232    0.0000 O.2     1  UNL1       -0.2913
     10 C           0.0000   -1.3265    0.0000 C.2     2  UNL2        0.0453
     11 C           1.1538   -1.9967    0.0000 C.2     2  UNL2        0.1960
     12 C           2.3007   -1.3265    0.0000 C.2     2  UNL2        0.0454
     13 C           3.4545   -1.9967    0.0000 C.2     2  UNL2        0.0488
     14 C           4.6083   -1.3265    0.0000 C.2     2  UNL2        0.2377
     15 C           5.7552   -1.9967    0.0000 C.2     2  UNL2        0.2760
     16 O           6.9090   -1.3265    0.0000 O.2     2  UNL2       -0.2796
     17 O           4.6083    0.0000    0.0000 O.2     2  UNL2       -0.2830
     18 O           1.1538   -3.3232    0.0000 O.2     2  UNL2       -0.2866
@<TRIPOS>BOND
     1     1     2    1
     2     2     3    1
     3     2     9    2
     4     3     4    2
     5     4     5    1
     6     5     6    1
     7     5     8    2
     8     6     7    2
     9    10    11    2
    10    11    12    1
    11    11    18    1
    12    12    13    2
    13    13    14    1
    14    14    15    1
    15    14    17    2
    16    15    16    2
