@<TRIPOS>MOLECULE
IMPHY010927
 49 53 0 0 0
SMALL
GASTEIGER

@<TRIPOS>ATOM
      1 O           5.3080    0.7194    0.0000 O.3     1  UNL1       -0.3504
      2 O           3.5499    0.2426    0.0000 O.3     1  UNL1       -0.4535
      3 O           8.4675    0.2686    0.0000 O.3     1  UNL1       -0.4596
      4 O           2.0000   -0.6368    0.0000 O.2     1  UNL1       -0.2505
      5 O          10.1751    0.7781    0.0000 O.2     1  UNL1       -0.2505
      6 N           6.3158   -0.0234    0.0000 N.3     1  UNL1       -0.2628
      7 C           5.4148   -0.4573    0.0000 C.3     1  UNL1        0.1638
      8 C           4.5138   -0.0234    0.0000 C.3     1  UNL1        0.1565
      9 C           7.0009   -0.7437    0.0000 C.3     1  UNL1        0.0503
     10 C           5.5508   -1.4421    0.0000 C.3     1  UNL1       -0.0044
     11 C           5.9148    1.7333    0.0000 C.3     1  UNL1        0.0740
     12 C           6.5383    0.9515    0.0000 C.3     1  UNL1        0.0284
     13 C           4.2913    0.9515    0.0000 C.3     1  UNL1       -0.0063
     14 C           6.5291   -1.6187    0.0000 C.3     1  UNL1       -0.0298
     15 C           4.9148    1.7333    0.0000 C.3     1  UNL1       -0.0216
     16 C           4.5587   -1.0224    0.0000 C.3     1  UNL1        0.0039
     17 C           7.9921   -0.6112    0.0000 C.3     1  UNL1        0.1193
     18 C           3.6225   -1.3738    0.0000 C.3     1  UNL1        0.0574
     19 C           8.6819   -1.3352    0.0000 C.3     1  UNL1       -0.0015
     20 C           2.9990   -0.5920    0.0000 C.2     1  UNL1        0.3107
     21 C           9.5836   -0.9029    0.0000 C.3     1  UNL1        0.0570
     22 C           3.3564   -2.3378    0.0000 C.3     1  UNL1       -0.0522
     23 C           9.4511    0.0883    0.0000 C.2     1  UNL1        0.3104
     24 C          10.4634   -1.3783    0.0000 C.3     1  UNL1       -0.0522
     25 H           7.4840   -1.4431    0.0000 H       1  UNL1        0.0500
     26 H           4.9311   -1.4619    0.0000 H       1  UNL1        0.0308
     27 H           5.5054   -2.0604    0.0000 H       1  UNL1        0.0308
     28 H           6.1040    2.5620    0.0000 H       1  UNL1        0.0609
     29 H           7.0969    0.6825    0.0000 H       1  UNL1        0.0453
     30 H           6.9249    1.4362    0.0000 H       1  UNL1        0.0453
     31 H           3.9048    1.4362    0.0000 H       1  UNL1        0.0306
     32 H           3.7327    0.6825    0.0000 H       1  UNL1        0.0306
     33 H           6.3554   -2.2139    0.0000 H       1  UNL1        0.0283
     34 H           7.1027   -1.8540    0.0000 H       1  UNL1        0.0283
     35 H           5.0528    2.3378    0.0000 H       1  UNL1        0.0292
     36 H           4.3562    2.0023    0.0000 H       1  UNL1        0.0292
     37 H           4.7147   -1.6225    0.0000 H       1  UNL1        0.0313
     38 H           5.1718   -0.9300    0.0000 H       1  UNL1        0.0313
     39 H           7.7100   -1.4130    0.0000 H       1  UNL1        0.0750
     40 H           3.0151   -1.4982    0.0000 H       1  UNL1        0.0412
     41 H           8.1908   -1.7136    0.0000 H       1  UNL1        0.0309
     42 H           9.0069   -1.8632    0.0000 H       1  UNL1        0.0309
     43 H           9.5686   -1.5227    0.0000 H       1  UNL1        0.0412
     44 H           2.7588   -2.1728    0.0000 H       1  UNL1        0.0238
     45 H           3.1915   -2.9354    0.0000 H       1  UNL1        0.0238
     46 H           3.9541   -2.5027    0.0000 H       1  UNL1        0.0238
     47 H          10.1686   -1.9237    0.0000 H       1  UNL1        0.0238
     48 H          11.0088   -1.6730    0.0000 H       1  UNL1        0.0238
     49 H          10.7581   -0.8328    0.0000 H       1  UNL1        0.0238
@<TRIPOS>BOND
     1     1     7    1
     2     1    11    1
     3     8     2    1
     4     2    20    1
     5     3    17    1
     6     3    23    1
     7     4    20    2
     8     5    23    2
     9     6     7    1
    10     6     9    1
    11     6    12    1
    12     7     8    1
    13     7    10    1
    14     8    13    1
    15     8    16    1
    16     9    14    1
    17     9    17    1
    18     9    25    1
    19    10    14    1
    20    10    26    1
    21    10    27    1
    22    11    12    1
    23    11    15    1
    24    11    28    1
    25    12    29    1
    26    12    30    1
    27    13    15    1
    28    13    31    1
    29    13    32    1
    30    14    33    1
    31    14    34    1
    32    15    35    1
    33    15    36    1
    34    16    18    1
    35    16    37    1
    36    16    38    1
    37    17    19    1
    38    17    39    1
    39    18    20    1
    40    18    22    1
    41    18    40    1
    42    19    21    1
    43    19    41    1
    44    19    42    1
    45    21    23    1
    46    21    24    1
    47    21    43    1
    48    22    44    1
    49    22    45    1
    50    22    46    1
    51    24    47    1
    52    24    48    1
    53    24    49    1
