@<TRIPOS>MOLECULE
IMPHY004491
 30 33 0 0 0
SMALL
GASTEIGER

@<TRIPOS>ATOM
      1 O           6.7421   -0.3391    0.0000 O.2     1  UNL1       -0.2852
      2 O           6.2619   -1.8085    0.0000 O.2     1  UNL1       -0.2698
      3 N           4.4053    0.7515    0.0000 N.pl3   1  UNL1       -0.3103
      4 N           4.6783   -2.6132    0.0000 N.am    1  UNL1       -0.2809
      5 C           4.6783   -1.0038    0.0000 C.2     1  UNL1        0.0708
      6 C           4.9889   -0.0533    0.0000 C.2     1  UNL1        0.0922
      7 C           3.7320   -1.3085    0.0000 C.ar    1  UNL1        0.0102
      8 C           3.7320   -2.3085    0.0000 C.ar    1  UNL1        0.0416
      9 C           5.9394    1.2456    0.0000 C.ar    1  UNL1        0.0447
     10 C           4.9889    1.5562    0.0000 C.ar    1  UNL1        0.0424
     11 C           5.9352    0.2515    0.0000 C.2     1  UNL1        0.2095
     12 C           5.2619   -1.8085    0.0000 C.2     1  UNL1        0.2508
     13 C           2.8660   -0.8085    0.0000 C.ar    1  UNL1       -0.0520
     14 C           2.8660   -2.8085    0.0000 C.ar    1  UNL1       -0.0399
     15 C           6.6838    1.9134    0.0000 C.ar    1  UNL1       -0.0491
     16 C           4.7827    2.5347    0.0000 C.ar    1  UNL1       -0.0398
     17 C           2.0000   -1.3085    0.0000 C.ar    1  UNL1       -0.0611
     18 C           2.0000   -2.3085    0.0000 C.ar    1  UNL1       -0.0600
     19 C           6.4775    2.8919    0.0000 C.ar    1  UNL1       -0.0610
     20 C           5.5270    3.2026    0.0000 C.ar    1  UNL1       -0.0600
     21 H           3.7853    0.7515    0.0000 H       1  UNL1        0.1523
     22 H           4.8709   -3.2026    0.0000 H       1  UNL1        0.1552
     23 H           2.8660   -0.1885    0.0000 H       1  UNL1        0.0624
     24 H           2.8660   -3.4285    0.0000 H       1  UNL1        0.0636
     25 H           7.2731    1.7208    0.0000 H       1  UNL1        0.0625
     26 H           4.1934    2.7273    0.0000 H       1  UNL1        0.0636
     27 H           1.4631   -0.9985    0.0000 H       1  UNL1        0.0618
     28 H           1.4631   -2.6185    0.0000 H       1  UNL1        0.0618
     29 H           6.9390    3.3060    0.0000 H       1  UNL1        0.0618
     30 H           5.3992    3.8092    0.0000 H       1  UNL1        0.0618
@<TRIPOS>BOND
     1     1    11    2
     2     2    12    2
     3     3     6    1
     4     3    10    1
     5     3    21    1
     6     4     8    1
     7     4    12   am
     8     4    22    1
     9     5     6    2
    10     5     7    1
    11     5    12    1
    12     6    11    1
    13     7     8   ar
    14     7    13   ar
    15     8    14   ar
    16     9    10   ar
    17     9    11    1
    18     9    15   ar
    19    10    16   ar
    20    13    17   ar
    21    13    23    1
    22    14    18   ar
    23    14    24    1
    24    15    19   ar
    25    15    25    1
    26    16    20   ar
    27    16    26    1
    28    17    18   ar
    29    17    27    1
    30    18    28    1
    31    19    20   ar
    32    19    29    1
    33    20    30    1
