@<TRIPOS>MOLECULE
IMPHY010213
 82 86 0 0 0
SMALL
GASTEIGER

@<TRIPOS>ATOM
      1 O           8.1381    0.9083    0.0000 O.3     1  UNL1       -0.4512
      2 O           8.4120   -1.6749    0.0000 O.3     1  UNL1       -0.4498
      3 O           9.8628   -1.1824    0.0000 O.3     1  UNL1       -0.3846
      4 O           6.4291   -1.4139    0.0000 O.3     1  UNL1       -0.4465
      5 O           9.6040    1.1977    0.0000 O.3     1  UNL1       -0.4584
      6 O           9.6343    1.6872    0.0000 O.2     1  UNL1       -0.2449
      7 O           5.6638    0.4339    0.0000 O.2     1  UNL1       -0.2970
      8 O           6.8118   -2.3378    0.0000 O.2     1  UNL1       -0.2449
      9 O           6.8897    4.8090    0.0000 O.3     1  UNL1       -0.5028
     10 O           8.7108    2.8831    0.0000 O.2     1  UNL1       -0.2449
     11 O           7.7503    5.3058    0.0000 O.3     1  UNL1       -0.5028
     12 O           5.1080    3.7985    0.0000 O.3     1  UNL1       -0.5009
     13 O           5.1080    1.7502    0.0000 O.3     1  UNL1       -0.5032
     14 O           5.0550   -0.3595    0.0000 O.2     1  UNL1       -0.2449
     15 O           9.5162    6.3436    0.0000 O.3     1  UNL1       -0.5009
     16 O          11.2901    5.3195    0.0000 O.3     1  UNL1       -0.5032
     17 O           7.3511   -5.9028    0.0000 O.3     1  UNL1       -0.5032
     18 O          10.5515   -4.5771    0.0000 O.3     1  UNL1       -0.5032
     19 O           9.3340   -6.1638    0.0000 O.3     1  UNL1       -0.5009
     20 O           2.2373   -2.6090    0.0000 O.3     1  UNL1       -0.5032
     21 O           4.9855   -4.7178    0.0000 O.3     1  UNL1       -0.5032
     22 O           3.0026   -4.4568    0.0000 O.3     1  UNL1       -0.5009
     23 C           8.6381    0.0423    0.0000 C.3     1  UNL1        0.1728
     24 C           8.0293   -0.7510    0.0000 C.3     1  UNL1        0.1858
     25 C           9.6040   -0.2165    0.0000 C.3     1  UNL1        0.1296
     26 C           7.0379   -0.6205    0.0000 C.3     1  UNL1        0.1979
     27 C          10.3111    0.4906    0.0000 C.3     1  UNL1        0.1222
     28 C           8.6381    1.7744    0.0000 C.2     1  UNL1        0.3405
     29 C           6.6552    0.3034    0.0000 C.2     1  UNL1        0.1645
     30 C           7.7721    2.2744    0.0000 C.ar    1  UNL1        0.0740
     31 C           7.7721    3.2744    0.0000 C.ar    1  UNL1        0.0458
     32 C           8.6381    3.7744    0.0000 C.ar    1  UNL1        0.0458
     33 C           9.5041    3.2744    0.0000 C.ar    1  UNL1        0.0740
     34 C           7.8032   -2.4683    0.0000 C.2     1  UNL1        0.3399
     35 C           9.5041    2.2744    0.0000 C.2     1  UNL1        0.3401
     36 C           6.8781    3.8090    0.0000 C.ar    1  UNL1        0.1708
     37 C           6.8781    1.7397    0.0000 C.ar    1  UNL1       -0.0017
     38 C           8.6220    4.8159    0.0000 C.ar    1  UNL1        0.1708
     39 C           5.4377   -1.2834    0.0000 C.2     1  UNL1        0.3402
     40 C          10.4141    3.7812    0.0000 C.ar    1  UNL1       -0.0017
     41 C           8.1859   -3.3922    0.0000 C.ar    1  UNL1        0.0661
     42 C           5.9720    3.2952    0.0000 C.ar    1  UNL1        0.2012
     43 C           5.9720    2.2535    0.0000 C.ar    1  UNL1        0.1628
     44 C           9.5201    5.3436    0.0000 C.ar    1  UNL1        0.2012
     45 C          10.4221    4.8228    0.0000 C.ar    1  UNL1        0.1628
     46 C           4.8289   -2.0767    0.0000 C.ar    1  UNL1        0.0661
     47 C           9.1774   -3.5227    0.0000 C.ar    1  UNL1       -0.0023
     48 C           7.5772   -4.1855    0.0000 C.ar    1  UNL1       -0.0023
     49 C           5.2116   -3.0006    0.0000 C.ar    1  UNL1       -0.0023
     50 C           3.8375   -1.9462    0.0000 C.ar    1  UNL1       -0.0023
     51 C           7.9599   -5.1094    0.0000 C.ar    1  UNL1        0.1628
     52 C           9.5601   -4.4466    0.0000 C.ar    1  UNL1        0.1628
     53 C           8.9513   -5.2399    0.0000 C.ar    1  UNL1        0.2006
     54 C           3.2287   -2.7395    0.0000 C.ar    1  UNL1        0.1628
     55 C           4.6028   -3.7939    0.0000 C.ar    1  UNL1        0.1628
     56 C           3.6114   -3.6634    0.0000 C.ar    1  UNL1        0.2006
     57 H           7.7899    0.0979    0.0000 H       1  UNL1        0.0801
     58 H           7.6519   -1.2429    0.0000 H       1  UNL1        0.0815
     59 H           9.1656   -0.6549    0.0000 H       1  UNL1        0.0666
     60 H           6.4232   -0.5396    0.0000 H       1  UNL1        0.0851
     61 H          10.7495    0.0522    0.0000 H       1  UNL1        0.0725
     62 H          10.7495    0.9290    0.0000 H       1  UNL1        0.0725
     63 H          10.4617   -1.3429    0.0000 H       1  UNL1        0.2101
     64 H           7.0326    0.7952    0.0000 H       1  UNL1        0.1067
     65 H           6.8853    1.1197    0.0000 H       1  UNL1        0.0664
     66 H          10.9474    3.4650    0.0000 H       1  UNL1        0.0664
     67 H           9.5548   -3.0308    0.0000 H       1  UNL1        0.0663
     68 H           6.9625   -4.1046    0.0000 H       1  UNL1        0.0663
     69 H           6.3564    5.1251    0.0000 H       1  UNL1        0.2923
     70 H           5.8263   -3.0815    0.0000 H       1  UNL1        0.0663
     71 H           3.6002   -1.3734    0.0000 H       1  UNL1        0.0663
     72 H           7.7431    5.9258    0.0000 H       1  UNL1        0.2923
     73 H           4.5698    3.4906    0.0000 H       1  UNL1        0.2924
     74 H           5.1104    1.1302    0.0000 H       1  UNL1        0.2923
     75 H          10.0519    6.6557    0.0000 H       1  UNL1        0.2924
     76 H          11.8258    5.0074    0.0000 H       1  UNL1        0.2923
     77 H           6.7364   -5.8218    0.0000 H       1  UNL1        0.2923
     78 H          10.7888   -5.1499    0.0000 H       1  UNL1        0.2923
     79 H           8.9566   -6.6557    0.0000 H       1  UNL1        0.2924
     80 H           2.0000   -2.0362    0.0000 H       1  UNL1        0.2923
     81 H           4.6081   -5.2097    0.0000 H       1  UNL1        0.2923
     82 H           2.3879   -4.3758    0.0000 H       1  UNL1        0.2924
@<TRIPOS>BOND
     1     1    23    1
     2     1    28    1
     3    24     2    1
     4     2    34    1
     5    25     3    1
     6     3    63    1
     7    26     4    1
     8     4    39    1
     9     5    27    1
    10     5    35    1
    11     6    28    2
    12     7    29    2
    13     8    34    2
    14     9    36    1
    15     9    69    1
    16    10    35    2
    17    11    38    1
    18    11    72    1
    19    12    42    1
    20    12    73    1
    21    13    43    1
    22    13    74    1
    23    14    39    2
    24    15    44    1
    25    15    75    1
    26    16    45    1
    27    16    76    1
    28    17    51    1
    29    17    77    1
    30    18    52    1
    31    18    78    1
    32    19    53    1
    33    19    79    1
    34    20    54    1
    35    20    80    1
    36    21    55    1
    37    21    81    1
    38    22    56    1
    39    22    82    1
    40    23    24    1
    41    23    25    1
    42    23    57    1
    43    24    26    1
    44    24    58    1
    45    25    27    1
    46    25    59    1
    47    26    29    1
    48    26    60    1
    49    27    61    1
    50    27    62    1
    51    28    30    1
    52    29    64    1
    53    30    31   ar
    54    30    37   ar
    55    31    32    1
    56    31    36   ar
    57    32    33   ar
    58    32    38   ar
    59    33    35    1
    60    33    40   ar
    61    34    41    1
    62    36    42   ar
    63    37    43   ar
    64    37    65    1
    65    38    44   ar
    66    39    46    1
    67    40    45   ar
    68    40    66    1
    69    41    47   ar
    70    41    48   ar
    71    42    43   ar
    72    44    45   ar
    73    46    49   ar
    74    46    50   ar
    75    47    52   ar
    76    47    67    1
    77    48    51   ar
    78    48    68    1
    79    49    55   ar
    80    49    70    1
    81    50    54   ar
    82    50    71    1
    83    51    53   ar
    84    52    53   ar
    85    54    56   ar
    86    55    56   ar
