@<TRIPOS>MOLECULE
IMPHY003164
 38 43 0 0 0
SMALL
GASTEIGER

@<TRIPOS>ATOM
      1 O           5.7497    2.8819    0.0000 O.3     1  UNL1       -0.4564
      2 O           3.4519   -2.7745    0.0000 O.3     1  UNL1       -0.4526
      3 O           2.0000   -1.9363    0.0000 O.3     1  UNL1       -0.4526
      4 O           8.9621    0.1117    0.0000 O.3     1  UNL1       -0.4526
      5 O           8.9621   -1.4977    0.0000 O.3     1  UNL1       -0.4526
      6 O           7.1333    1.7679    0.0000 O.2     1  UNL1       -0.2449
      7 C           5.4178    0.3070    0.0000 C.ar    1  UNL1        0.0044
      8 C           4.5518   -0.1930    0.0000 C.ar    1  UNL1       -0.0057
      9 C           5.4178    1.3070    0.0000 C.ar    1  UNL1        0.0737
     10 C           4.5518    1.8070    0.0000 C.ar    1  UNL1        0.0048
     11 C           3.6857    0.3070    0.0000 C.ar    1  UNL1       -0.0132
     12 C           3.6857    1.3070    0.0000 C.ar    1  UNL1       -0.0467
     13 C           6.2838   -0.1930    0.0000 C.ar    1  UNL1       -0.0128
     14 C           4.7610    2.7788    0.0000 C.3     1  UNL1        0.1186
     15 C           4.5678   -1.2345    0.0000 C.ar    1  UNL1       -0.0078
     16 C           2.7757   -0.1998    0.0000 C.ar    1  UNL1       -0.0084
     17 C           3.6698   -1.7623    0.0000 C.ar    1  UNL1        0.1668
     18 C           6.1548    1.9741    0.0000 C.2     1  UNL1        0.3405
     19 C           2.7677   -1.2414    0.0000 C.ar    1  UNL1        0.1668
     20 C           7.1498    0.3070    0.0000 C.ar    1  UNL1       -0.0084
     21 C           6.2838   -1.1930    0.0000 C.ar    1  UNL1       -0.0503
     22 C           8.0159   -0.1930    0.0000 C.ar    1  UNL1        0.1668
     23 C           8.0159   -1.1930    0.0000 C.ar    1  UNL1        0.1663
     24 C           7.1498   -1.6930    0.0000 C.ar    1  UNL1       -0.0156
     25 C           2.4220   -2.8819    0.0000 C.3     1  UNL1        0.2332
     26 C           9.5457   -0.6930    0.0000 C.3     1  UNL1        0.2332
     27 H           3.1488    1.6170    0.0000 H       1  UNL1        0.0628
     28 H           4.7618    3.3988    0.0000 H       1  UNL1        0.0749
     29 H           4.1445    2.8449    0.0000 H       1  UNL1        0.0749
     30 H           5.1083   -1.5383    0.0000 H       1  UNL1        0.0662
     31 H           2.2424    0.1163    0.0000 H       1  UNL1        0.0661
     32 H           7.1498    0.9270    0.0000 H       1  UNL1        0.0661
     33 H           5.7469   -1.5030    0.0000 H       1  UNL1        0.0625
     34 H           7.1498   -2.3130    0.0000 H       1  UNL1        0.0655
     35 H           1.8324   -3.0736    0.0000 H       1  UNL1        0.1166
     36 H           2.5507   -3.4884    0.0000 H       1  UNL1        0.1166
     37 H          10.0066   -1.1077    0.0000 H       1  UNL1        0.1166
     38 H          10.0066   -0.2783    0.0000 H       1  UNL1        0.1166
@<TRIPOS>BOND
     1     1    14    1
     2     1    18    1
     3     2    17    1
     4     2    25    1
     5     3    19    1
     6     3    25    1
     7     4    22    1
     8     4    26    1
     9     5    23    1
    10     5    26    1
    11     6    18    2
    12     7     8   ar
    13     7     9   ar
    14     7    13    1
    15     8    11   ar
    16     8    15   ar
    17     9    10   ar
    18     9    18    1
    19    10    12   ar
    20    10    14    1
    21    11    12   ar
    22    11    16   ar
    23    12    27    1
    24    13    20   ar
    25    13    21   ar
    26    14    28    1
    27    14    29    1
    28    15    17   ar
    29    15    30    1
    30    16    19   ar
    31    16    31    1
    32    17    19   ar
    33    20    22   ar
    34    20    32    1
    35    21    24   ar
    36    21    33    1
    37    22    23   ar
    38    23    24   ar
    39    24    34    1
    40    25    35    1
    41    25    36    1
    42    26    37    1
    43    26    38    1
