@<TRIPOS>MOLECULE
IMPHY015048
 52 55 0 0 0
SMALL
GASTEIGER

@<TRIPOS>ATOM
      1 O           5.0929   -1.4269    0.0000 O.3     1  UNL1       -0.3310
      2 O           6.8530   -1.7056    0.0000 O.3     1  UNL1       -0.4532
      3 O           4.0051   -3.7747    0.0000 O.3     1  UNL1       -0.3863
      4 O           6.1807   -3.7747    0.0000 O.3     1  UNL1       -0.3829
      5 O           2.5896   -2.3748    0.0000 O.3     1  UNL1       -0.3894
      6 O           8.2198    0.5597    0.0000 O.2     1  UNL1       -0.4507
      7 O           5.3667   -0.3674    0.0000 O.2     1  UNL1       -0.2830
      8 O           4.7935    1.2848    0.0000 O.3     1  UNL1       -0.5058
      9 O           7.1519    3.9245    0.0000 O.3     1  UNL1       -0.5065
     10 O          11.4003   -1.1387    0.0000 O.3     1  UNL1       -0.5033
     11 O          10.9845   -3.0950    0.0000 O.3     1  UNL1       -0.5033
     12 C           4.2839   -2.0146    0.0000 C.3     1  UNL1        0.1167
     13 C           4.5929   -2.9657    0.0000 C.3     1  UNL1        0.1155
     14 C           5.5929   -2.9657    0.0000 C.3     1  UNL1        0.1454
     15 C           5.9019   -2.0146    0.0000 C.3     1  UNL1        0.2311
     16 C           3.3328   -1.7056    0.0000 C.3     1  UNL1        0.0812
     17 C           3.1249   -0.7275    0.0000 C.3     1  UNL1       -0.0364
     18 C           7.0609   -0.7275    0.0000 C.ar    1  UNL1        0.2138
     19 C           8.0119   -0.4185    0.0000 C.ar    1  UNL1        0.1810
     20 C           6.3177   -0.0584    0.0000 C.ar    1  UNL1        0.2382
     21 C           6.5256    0.9198    0.0000 C.ar    1  UNL1        0.1092
     22 C           7.4767    1.2288    0.0000 C.ar    1  UNL1        0.1465
     23 C           8.7551   -1.0876    0.0000 C.ar    1  UNL1        0.0247
     24 C           5.7409    1.6048    0.0000 C.ar    1  UNL1        0.1348
     25 C           7.7089    2.2442    0.0000 C.ar    1  UNL1        0.0231
     26 C           9.7061   -0.7786    0.0000 C.ar    1  UNL1       -0.0057
     27 C           8.5472   -2.0658    0.0000 C.ar    1  UNL1       -0.0473
     28 C           5.9496    2.6253    0.0000 C.ar    1  UNL1        0.0223
     29 C           6.9402    2.9472    0.0000 C.ar    1  UNL1        0.1239
     30 C          10.4493   -1.4477    0.0000 C.ar    1  UNL1        0.1589
     31 C           9.2903   -2.7349    0.0000 C.ar    1  UNL1       -0.0159
     32 C          10.2413   -2.4259    0.0000 C.ar    1  UNL1        0.1583
     33 H           4.1509   -1.1751    0.0000 H       1  UNL1        0.0650
     34 H           3.9805   -2.8687    0.0000 H       1  UNL1        0.0648
     35 H           5.3114   -3.5181    0.0000 H       1  UNL1        0.0683
     36 H           6.3403   -2.4531    0.0000 H       1  UNL1        0.1084
     37 H           3.4617   -2.3121    0.0000 H       1  UNL1        0.0617
     38 H           3.7313   -0.5986    0.0000 H       1  UNL1        0.0255
     39 H           2.9960   -0.1210    0.0000 H       1  UNL1        0.0255
     40 H           2.5184   -0.8564    0.0000 H       1  UNL1        0.0255
     41 H           4.2573   -4.3411    0.0000 H       1  UNL1        0.2100
     42 H           6.7973   -3.7099    0.0000 H       1  UNL1        0.2102
     43 H           2.0000   -2.1832    0.0000 H       1  UNL1        0.2099
     44 H           8.3008    2.4290    0.0000 H       1  UNL1        0.0691
     45 H           9.8350   -0.1721    0.0000 H       1  UNL1        0.0662
     46 H           7.9575   -2.2573    0.0000 H       1  UNL1        0.0626
     47 H           5.4873    3.0384    0.0000 H       1  UNL1        0.0691
     48 H           9.1614   -3.3413    0.0000 H       1  UNL1        0.0655
     49 H           4.3280    1.6943    0.0000 H       1  UNL1        0.2922
     50 H           6.6928    4.3411    0.0000 H       1  UNL1        0.2921
     51 H          11.5292   -0.5322    0.0000 H       1  UNL1        0.2923
     52 H          11.5741   -2.9034    0.0000 H       1  UNL1        0.2923
@<TRIPOS>BOND
     1     1    12    1
     2     1    15    1
     3    15     2    1
     4     2    18    1
     5    13     3    1
     6     3    41    1
     7    14     4    1
     8     4    42    1
     9    16     5    1
    10     5    43    1
    11     6    19   ar
    12     6    22   ar
    13     7    20    2
    14     8    24    1
    15     8    49    1
    16     9    29    1
    17     9    50    1
    18    10    30    1
    19    10    51    1
    20    11    32    1
    21    11    52    1
    22    12    13    1
    23    12    16    1
    24    12    33    1
    25    13    14    1
    26    13    34    1
    27    14    15    1
    28    14    35    1
    29    15    36    1
    30    16    17    1
    31    16    37    1
    32    17    38    1
    33    17    39    1
    34    17    40    1
    35    18    19   ar
    36    18    20   ar
    37    19    23    1
    38    20    21   ar
    39    21    22   ar
    40    21    24   ar
    41    22    25   ar
    42    23    26   ar
    43    23    27   ar
    44    24    28   ar
    45    25    29   ar
    46    25    44    1
    47    26    30   ar
    48    26    45    1
    49    27    31   ar
    50    27    46    1
    51    28    29   ar
    52    28    47    1
    53    30    32   ar
    54    31    32   ar
    55    31    48    1
