@<TRIPOS>MOLECULE
IMPHY012868
 76 80 0 0 0
SMALL
GASTEIGER

@<TRIPOS>ATOM
      1 O           6.9343   -0.3450    0.0000 O.3     1  UNL1       -0.3313
      2 O           6.0682   -2.8450    0.0000 O.3     1  UNL1       -0.3461
      3 O           4.3362   -2.8450    0.0000 O.3     1  UNL1       -0.3431
      4 O           7.8003   -2.8450    0.0000 O.3     1  UNL1       -0.3865
      5 O           9.5323   -1.8450    0.0000 O.3     1  UNL1       -0.3864
      6 O           7.8003    1.1550    0.0000 O.3     1  UNL1       -0.4532
      7 O           9.5323    0.1550    0.0000 O.3     1  UNL1       -0.3829
      8 O           6.0682   -4.8450    0.0000 O.3     1  UNL1       -0.3841
      9 O           4.3362   -5.8450    0.0000 O.3     1  UNL1       -0.3864
     10 O           2.6042   -4.8450    0.0000 O.3     1  UNL1       -0.3866
     11 O           6.0682    3.1550    0.0000 O.2     1  UNL1       -0.4507
     12 O           6.0682    0.1550    0.0000 O.2     1  UNL1       -0.2830
     13 O           4.3198    0.1204    0.0000 O.3     1  UNL1       -0.5058
     14 O           2.5381    3.1792    0.0000 O.3     1  UNL1       -0.5065
     15 O           8.6663    5.6550    0.0000 O.3     1  UNL1       -0.4914
     16 O          10.3984    4.6550    0.0000 O.3     1  UNL1       -0.5033
     17 C           6.9343   -1.3450    0.0000 C.3     1  UNL1        0.1144
     18 C           7.8003   -1.8450    0.0000 C.3     1  UNL1        0.1120
     19 C           8.6663   -1.3450    0.0000 C.3     1  UNL1        0.1152
     20 C           8.6663   -0.3450    0.0000 C.3     1  UNL1        0.1454
     21 C           5.2022   -4.3450    0.0000 C.3     1  UNL1        0.1341
     22 C           5.2022   -3.3450    0.0000 C.3     1  UNL1        0.1879
     23 C           4.3362   -4.8450    0.0000 C.3     1  UNL1        0.1140
     24 C           3.4702   -4.3450    0.0000 C.3     1  UNL1        0.1095
     25 C           7.8003    0.1550    0.0000 C.3     1  UNL1        0.2311
     26 C           6.0682   -1.8450    0.0000 C.3     1  UNL1        0.0796
     27 C           3.4702   -3.3450    0.0000 C.3     1  UNL1        0.0873
     28 C           2.6042   -2.8450    0.0000 C.3     1  UNL1       -0.0361
     29 C           6.9343    1.6550    0.0000 C.ar    1  UNL1        0.2138
     30 C           6.9343    2.6550    0.0000 C.ar    1  UNL1        0.1810
     31 C           6.0682    1.1550    0.0000 C.ar    1  UNL1        0.2382
     32 C           5.2022    1.6550    0.0000 C.ar    1  UNL1        0.1092
     33 C           7.8003    3.1550    0.0000 C.ar    1  UNL1        0.0247
     34 C           5.2022    2.6550    0.0000 C.ar    1  UNL1        0.1465
     35 C           4.3083    1.1203    0.0000 C.ar    1  UNL1        0.1348
     36 C           4.3083    3.1897    0.0000 C.ar    1  UNL1        0.0231
     37 C           7.8003    4.1550    0.0000 C.ar    1  UNL1       -0.0055
     38 C           8.6663    2.6550    0.0000 C.ar    1  UNL1       -0.0473
     39 C           3.4022    1.6342    0.0000 C.ar    1  UNL1        0.0223
     40 C           3.4022    2.6758    0.0000 C.ar    1  UNL1        0.1239
     41 C           8.6663    4.6550    0.0000 C.ar    1  UNL1        0.1619
     42 C           9.5323    3.1550    0.0000 C.ar    1  UNL1       -0.0159
     43 C           9.5323    4.1550    0.0000 C.ar    1  UNL1        0.1585
     44 C           7.8003    6.1550    0.0000 C.3     1  UNL1        0.0790
     45 H           6.3973   -1.0350    0.0000 H       1  UNL1        0.0647
     46 H           8.3372   -2.1550    0.0000 H       1  UNL1        0.0647
     47 H           9.2033   -1.0350    0.0000 H       1  UNL1        0.0648
     48 H           9.2033   -0.6550    0.0000 H       1  UNL1        0.0683
     49 H           5.7392   -4.0350    0.0000 H       1  UNL1        0.0671
     50 H           5.2022   -2.7250    0.0000 H       1  UNL1        0.0937
     51 H           3.7993   -5.1550    0.0000 H       1  UNL1        0.0648
     52 H           2.9332   -4.0350    0.0000 H       1  UNL1        0.0646
     53 H           8.3372    0.4650    0.0000 H       1  UNL1        0.1084
     54 H           5.8562   -1.2624    0.0000 H       1  UNL1        0.0587
     55 H           5.4577   -1.9527    0.0000 H       1  UNL1        0.0587
     56 H           3.4702   -2.7250    0.0000 H       1  UNL1        0.0621
     57 H           2.9141   -2.3081    0.0000 H       1  UNL1        0.0255
     58 H           2.0672   -2.5350    0.0000 H       1  UNL1        0.0255
     59 H           2.2942   -3.3819    0.0000 H       1  UNL1        0.0255
     60 H           8.3372   -3.1550    0.0000 H       1  UNL1        0.2100
     61 H          10.0693   -1.5350    0.0000 H       1  UNL1        0.2100
     62 H           9.5323    0.7750    0.0000 H       1  UNL1        0.2102
     63 H           6.6052   -4.5350    0.0000 H       1  UNL1        0.2101
     64 H           3.7993   -6.1550    0.0000 H       1  UNL1        0.2100
     65 H           2.0672   -4.5350    0.0000 H       1  UNL1        0.2100
     66 H           4.3154    3.8096    0.0000 H       1  UNL1        0.0691
     67 H           7.2634    4.4650    0.0000 H       1  UNL1        0.0662
     68 H           8.6663    2.0350    0.0000 H       1  UNL1        0.0626
     69 H           2.8665    1.3221    0.0000 H       1  UNL1        0.0691
     70 H          10.0693    2.8450    0.0000 H       1  UNL1        0.0655
     71 H           3.7865   -0.1958    0.0000 H       1  UNL1        0.2922
     72 H           2.0000    2.8712    0.0000 H       1  UNL1        0.2921
     73 H          10.9353    4.3450    0.0000 H       1  UNL1        0.2923
     74 H           8.1103    6.6919    0.0000 H       1  UNL1        0.0660
     75 H           7.2634    6.4650    0.0000 H       1  UNL1        0.0660
     76 H           7.4903    5.6181    0.0000 H       1  UNL1        0.0660
@<TRIPOS>BOND
     1     1    17    1
     2     1    25    1
     3    22     2    1
     4     2    26    1
     5     3    22    1
     6     3    27    1
     7    18     4    1
     8     4    60    1
     9    19     5    1
    10     5    61    1
    11    25     6    1
    12     6    29    1
    13    20     7    1
    14     7    62    1
    15    21     8    1
    16     8    63    1
    17    23     9    1
    18     9    64    1
    19    24    10    1
    20    10    65    1
    21    11    30   ar
    22    11    34   ar
    23    12    31    2
    24    13    35    1
    25    13    71    1
    26    14    40    1
    27    14    72    1
    28    15    41    1
    29    15    44    1
    30    16    43    1
    31    16    73    1
    32    17    18    1
    33    17    26    1
    34    17    45    1
    35    18    19    1
    36    18    46    1
    37    19    20    1
    38    19    47    1
    39    20    25    1
    40    20    48    1
    41    21    22    1
    42    21    23    1
    43    21    49    1
    44    22    50    1
    45    23    24    1
    46    23    51    1
    47    24    27    1
    48    24    52    1
    49    25    53    1
    50    26    54    1
    51    26    55    1
    52    27    28    1
    53    27    56    1
    54    28    57    1
    55    28    58    1
    56    28    59    1
    57    29    30   ar
    58    29    31   ar
    59    30    33    1
    60    31    32   ar
    61    32    34   ar
    62    32    35   ar
    63    33    37   ar
    64    33    38   ar
    65    34    36   ar
    66    35    39   ar
    67    36    40   ar
    68    36    66    1
    69    37    41   ar
    70    37    67    1
    71    38    42   ar
    72    38    68    1
    73    39    40   ar
    74    39    69    1
    75    41    43   ar
    76    42    43   ar
    77    42    70    1
    78    44    74    1
    79    44    75    1
    80    44    76    1
