@<TRIPOS>MOLECULE
IMPHY000447
 77 81 0 0 0
SMALL
GASTEIGER

@<TRIPOS>ATOM
      1 O           2.5357   -2.5933    0.0000 O.3     1  UNL1       -0.3912
      2 O          11.5367    2.6034    0.0000 O.3     1  UNL1       -0.3906
      3 C           7.0628   -1.0410    0.0000 C.3     1  UNL1       -0.0225
      4 C           6.1968   -0.5410    0.0000 C.3     1  UNL1       -0.0294
      5 C           5.2868   -1.0478    0.0000 C.3     1  UNL1       -0.0252
      6 C           7.9288   -0.5410    0.0000 C.3     1  UNL1       -0.0162
      7 C           5.2787   -2.0894    0.0000 C.3     1  UNL1       -0.0278
      8 C           7.0789   -2.0825    0.0000 C.3     1  UNL1       -0.0465
      9 C           7.9288    0.4590    0.0000 C.3     1  UNL1       -0.0097
     10 C           6.1808   -2.6102    0.0000 C.3     1  UNL1       -0.0486
     11 C           6.1968    0.4590    0.0000 C.3     1  UNL1       -0.0486
     12 C           4.3433   -2.6391    0.0000 C.3     1  UNL1       -0.0056
     13 C           4.3599   -0.4837    0.0000 C.3     1  UNL1       -0.0447
     14 C           7.0628    0.9590    0.0000 C.3     1  UNL1       -0.0454
     15 C           7.7056   -1.8070    0.0000 C.3     1  UNL1       -0.0588
     16 C           8.8228   -1.0756    0.0000 C.3     1  UNL1       -0.0277
     17 C           3.4037   -2.0966    0.0000 C.3     1  UNL1        0.0606
     18 C           5.2945   -0.0478    0.0000 C.3     1  UNL1       -0.0590
     19 C           3.4120   -1.0117    0.0000 C.3     1  UNL1       -0.0258
     20 C           8.2709   -1.4806    0.0000 C.3     1  UNL1       -0.0582
     21 C           8.8228    0.9937    0.0000 C.2     1  UNL1       -0.0441
     22 C           3.8467   -3.5071    0.0000 C.3     1  UNL1       -0.0572
     23 C           4.8466   -3.5032    0.0000 C.3     1  UNL1       -0.0572
     24 C           9.7288    0.4799    0.0000 C.2     1  UNL1       -0.0456
     25 C           9.7288   -0.5618    0.0000 C.2     1  UNL1       -0.0799
     26 C           8.7977    2.0784    0.0000 C.2     1  UNL1       -0.0722
     27 C          10.6726    1.0151    0.0000 C.3     1  UNL1       -0.0008
     28 C           9.7288    2.6353    0.0000 C.3     1  UNL1        0.0099
     29 C          10.6726    2.1001    0.0000 C.3     1  UNL1        0.0677
     30 C          10.2188    3.5071    0.0000 C.3     1  UNL1       -0.0540
     31 C           9.2188    3.4955    0.0000 C.3     1  UNL1       -0.0540
     32 H           6.9329   -0.1160    0.0000 H       1  UNL1        0.0312
     33 H           5.2820   -2.9394    0.0000 H       1  UNL1        0.0312
     34 H           7.2969   -2.6629    0.0000 H       1  UNL1        0.0271
     35 H           7.6880   -1.9670    0.0000 H       1  UNL1        0.0271
     36 H           7.9223    1.3090    0.0000 H       1  UNL1        0.0354
     37 H           5.7835   -3.0862    0.0000 H       1  UNL1        0.0268
     38 H           6.5818   -3.0831    0.0000 H       1  UNL1        0.0268
     39 H           5.9847    1.0416    0.0000 H       1  UNL1        0.0268
     40 H           5.5862    0.3514    0.0000 H       1  UNL1        0.0268
     41 H           4.7681   -0.0171    0.0000 H       1  UNL1        0.0271
     42 H           3.9700   -0.0017    0.0000 H       1  UNL1        0.0271
     43 H           7.4613    1.4340    0.0000 H       1  UNL1        0.0271
     44 H           6.6643    1.4340    0.0000 H       1  UNL1        0.0271
     45 H           7.2306   -2.2055    0.0000 H       1  UNL1        0.0235
     46 H           8.1041   -2.2820    0.0000 H       1  UNL1        0.0235
     47 H           8.1805   -1.4085    0.0000 H       1  UNL1        0.0235
     48 H           8.4182   -1.5454    0.0000 H       1  UNL1        0.0313
     49 H           9.2164   -1.5546    0.0000 H       1  UNL1        0.0313
     50 H           3.4025   -2.7166    0.0000 H       1  UNL1        0.0599
     51 H           5.9145   -0.0526    0.0000 H       1  UNL1        0.0235
     52 H           5.2993    0.5721    0.0000 H       1  UNL1        0.0235
     53 H           4.6745   -0.0431    0.0000 H       1  UNL1        0.0235
     54 H           3.2075   -0.4264    0.0000 H       1  UNL1        0.0290
     55 H           2.8004   -1.1131    0.0000 H       1  UNL1        0.0290
     56 H           7.6884   -1.6927    0.0000 H       1  UNL1        0.0236
     57 H           8.4830   -2.0632    0.0000 H       1  UNL1        0.0236
     58 H           8.8535   -1.2685    0.0000 H       1  UNL1        0.0236
     59 H           4.3109   -3.8153    0.0000 H       1  UNL1        0.0236
     60 H           5.1587   -4.0390    0.0000 H       1  UNL1        0.0236
     61 H           3.3085   -3.1992    0.0000 H       1  UNL1        0.0236
     62 H           3.5387   -4.0452    0.0000 H       1  UNL1        0.0236
     63 H           4.3848   -3.8150    0.0000 H       1  UNL1        0.0236
     64 H           5.3824   -3.1912    0.0000 H       1  UNL1        0.0236
     65 H          10.2646   -0.8738    0.0000 H       1  UNL1        0.0575
     66 H           8.2549    2.3780    0.0000 H       1  UNL1        0.0581
     67 H          10.8817    0.4314    0.0000 H       1  UNL1        0.0338
     68 H          11.2835    1.1212    0.0000 H       1  UNL1        0.0338
     69 H           2.0000   -2.2812    0.0000 H       1  UNL1        0.2098
     70 H          11.2101    1.7911    0.0000 H       1  UNL1        0.0605
     71 H           9.7522    3.8117    0.0000 H       1  UNL1        0.0239
     72 H           8.9027    4.0288    0.0000 H       1  UNL1        0.0239
     73 H          10.7593    3.2033    0.0000 H       1  UNL1        0.0239
     74 H          10.5226    4.0476    0.0000 H       1  UNL1        0.0239
     75 H           8.6855    3.1793    0.0000 H       1  UNL1        0.0239
     76 H           9.6783    3.8108    0.0000 H       1  UNL1        0.0239
     77 H          12.0748    2.2955    0.0000 H       1  UNL1        0.2098
@<TRIPOS>BOND
     1    17     1    1
     2     1    69    1
     3    29     2    1
     4     2    77    1
     5     3     4    1
     6     3     6    1
     7     3     8    1
     8     3    15    1
     9     4     5    1
    10     4    11    1
    11     4    32    1
    12     5     7    1
    13     5    13    1
    14     5    18    1
    15     6     9    1
    16     6    16    1
    17     6    20    1
    18     7    10    1
    19     7    12    1
    20     7    33    1
    21     8    10    1
    22     8    34    1
    23     8    35    1
    24     9    14    1
    25     9    21    1
    26     9    36    1
    27    10    37    1
    28    10    38    1
    29    11    14    1
    30    11    39    1
    31    11    40    1
    32    12    17    1
    33    12    22    1
    34    12    23    1
    35    13    19    1
    36    13    41    1
    37    13    42    1
    38    14    43    1
    39    14    44    1
    40    15    45    1
    41    15    46    1
    42    15    47    1
    43    16    25    1
    44    16    48    1
    45    16    49    1
    46    17    19    1
    47    17    50    1
    48    18    51    1
    49    18    52    1
    50    18    53    1
    51    19    54    1
    52    19    55    1
    53    20    56    1
    54    20    57    1
    55    20    58    1
    56    21    24    1
    57    21    26    2
    58    22    61    1
    59    22    62    1
    60    22    63    1
    61    23    59    1
    62    23    60    1
    63    23    64    1
    64    24    25    2
    65    24    27    1
    66    25    65    1
    67    26    28    1
    68    26    66    1
    69    27    29    1
    70    27    67    1
    71    27    68    1
    72    28    29    1
    73    28    30    1
    74    28    31    1
    75    29    70    1
    76    30    73    1
    77    30    74    1
    78    30    76    1
    79    31    71    1
    80    31    72    1
    81    31    75    1
