@<TRIPOS>MOLECULE
IMPHY009489
 108 116 0 0 0
SMALL
GASTEIGER

@<TRIPOS>ATOM
      1 O           4.5468    0.9578    0.0000 O.3     1  UNL1       -0.3815
      2 O           4.1055    1.7959    0.0000 O.3     1  UNL1       -0.3851
      3 O           5.6230    0.6271    0.0000 O.3     1  UNL1       -0.3765
      4 O           7.4457    4.3889    0.0000 O.3     1  UNL1       -0.3791
      5 O           3.7293    4.1374    0.0000 O.3     1  UNL1       -0.4571
      6 O           3.3280    4.8469    0.0000 O.3     1  UNL1       -0.3793
      7 O           8.3117    0.1538    0.0000 O.3     1  UNL1       -0.4605
      8 O           2.7323    2.7211    0.0000 O.2     1  UNL1       -0.2450
      9 O           7.4457   -1.3462    0.0000 O.2     1  UNL1       -0.2449
     10 O          10.3943   -4.1499    0.0000 O.2     1  UNL1       -0.2745
     11 O           7.0865   -2.9459    0.0000 O.2     1  UNL1       -0.2748
     12 N           8.6410    2.5599    0.0000 N.3     1  UNL1       -0.2955
     13 N           8.8357   -3.2859    0.0000 N.am    1  UNL1       -0.2094
     14 C           6.6944    2.9551    0.0000 C.3     1  UNL1        0.0245
     15 C           6.6944    2.0875    0.0000 C.3     1  UNL1        0.0078
     16 C           7.6963    2.8491    0.0000 C.3     1  UNL1        0.0529
     17 C           6.0161    3.4960    0.0000 C.3     1  UNL1       -0.0218
     18 C           5.1702    1.7397    0.0000 C.3     1  UNL1        0.1371
     19 C           5.1702    3.3030    0.0000 C.3     1  UNL1        0.0317
     20 C           4.7938    2.5213    0.0000 C.3     1  UNL1        0.1073
     21 C           6.0161    1.5466    0.0000 C.3     1  UNL1        0.0953
     22 C           7.4457    1.6538    0.0000 C.3     1  UNL1        0.0236
     23 C           7.4457    3.3889    0.0000 C.3     1  UNL1        0.0661
     24 C           6.0938    4.3601    0.0000 C.3     1  UNL1       -0.0405
     25 C           5.2961    4.7011    0.0000 C.3     1  UNL1        0.0231
     26 C           4.7253    4.0478    0.0000 C.3     1  UNL1        0.1143
     27 C           4.1489    2.7912    0.0000 C.3     1  UNL1        0.0060
     28 C           8.6410    1.8080    0.0000 C.3     1  UNL1        0.0084
     29 C           8.1971    2.0875    0.0000 C.3     1  UNL1       -0.0404
     30 C           4.1489    4.2758    0.0000 C.3     1  UNL1        0.0672
     31 C           8.1971    2.9551    0.0000 C.3     1  UNL1       -0.0254
     32 C           7.4457    0.6538    0.0000 C.3     1  UNL1        0.0999
     33 C           9.4450    3.1546    0.0000 C.3     1  UNL1       -0.0035
     34 C           6.2229   -0.1730    0.0000 C.3     1  UNL1        0.0369
     35 C          10.3620    2.7556    0.0000 C.3     1  UNL1       -0.0523
     36 C           8.3117    4.8889    0.0000 C.3     1  UNL1        0.0368
     37 C           2.8219    3.7170    0.0000 C.2     1  UNL1        0.3395
     38 C           3.4122    5.8433    0.0000 C.3     1  UNL1        0.0368
     39 C           8.3117   -0.8462    0.0000 C.2     1  UNL1        0.3410
     40 C           2.0042    4.2927    0.0000 C.ar    1  UNL1        0.0590
     41 C           9.1778   -1.3462    0.0000 C.ar    1  UNL1        0.0807
     42 C           2.0939    5.2886    0.0000 C.ar    1  UNL1       -0.0478
     43 C           1.0969    3.8723    0.0000 C.ar    1  UNL1       -0.0478
     44 C           9.1778   -2.3462    0.0000 C.ar    1  UNL1        0.0578
     45 C          10.0438   -0.8462    0.0000 C.ar    1  UNL1       -0.0459
     46 C           1.2761    5.8642    0.0000 C.ar    1  UNL1       -0.0610
     47 C           0.2791    4.4479    0.0000 C.ar    1  UNL1       -0.0610
     48 C           0.3688    5.4439    0.0000 C.ar    1  UNL1       -0.0617
     49 C          10.0438   -2.8462    0.0000 C.ar    1  UNL1       -0.0390
     50 C          10.9098   -1.3462    0.0000 C.ar    1  UNL1       -0.0609
     51 C          10.9098   -2.3462    0.0000 C.ar    1  UNL1       -0.0599
     52 C           9.3949   -4.1150    0.0000 C.2     1  UNL1        0.2295
     53 C           7.8745   -3.5616    0.0000 C.2     1  UNL1        0.2269
     54 C           8.7793   -4.9030    0.0000 C.3     1  UNL1        0.0419
     55 C           7.8396   -4.5610    0.0000 C.3     1  UNL1        0.0357
     56 C           9.0549   -5.8642    0.0000 C.3     1  UNL1       -0.0536
     57 H           6.7579    1.2399    0.0000 H       1  UNL1        0.0340
     58 H           7.8203    3.4566    0.0000 H       1  UNL1        0.0499
     59 H           6.7977    3.8301    0.0000 H       1  UNL1        0.0312
     60 H           4.3211    3.2649    0.0000 H       1  UNL1        0.0368
     61 H           6.2165    0.9599    0.0000 H       1  UNL1        0.0629
     62 H           6.9088    3.6989    0.0000 H       1  UNL1        0.0602
     63 H           6.2766    4.9526    0.0000 H       1  UNL1        0.0273
     64 H           6.7022    4.2403    0.0000 H       1  UNL1        0.0273
     65 H           5.3168    5.5508    0.0000 H       1  UNL1        0.0362
     66 H           4.4944    4.6232    0.0000 H       1  UNL1        0.0741
     67 H           3.9870    2.1928    0.0000 H       1  UNL1        0.0319
     68 H           3.5343    2.8729    0.0000 H       1  UNL1        0.0319
     69 H           9.2605    1.8345    0.0000 H       1  UNL1        0.0433
     70 H           8.6940    1.1902    0.0000 H       1  UNL1        0.0433
     71 H           8.8076    2.1952    0.0000 H       1  UNL1        0.0273
     72 H           8.4091    1.5049    0.0000 H       1  UNL1        0.0273
     73 H           4.2271    4.8908    0.0000 H       1  UNL1        0.0601
     74 H           8.4091    3.5377    0.0000 H       1  UNL1        0.0290
     75 H           8.8076    2.8474    0.0000 H       1  UNL1        0.0290
     76 H           7.2336    0.0711    0.0000 H       1  UNL1        0.0704
     77 H           6.8351    0.7614    0.0000 H       1  UNL1        0.0704
     78 H           4.7733    0.3807    0.0000 H       1  UNL1        0.2105
     79 H           3.5110    1.6198    0.0000 H       1  UNL1        0.2103
     80 H           8.9954    3.5814    0.0000 H       1  UNL1        0.0424
     81 H           9.7873    3.6715    0.0000 H       1  UNL1        0.0424
     82 H           6.7190    0.1988    0.0000 H       1  UNL1        0.0524
     83 H           6.5948   -0.6691    0.0000 H       1  UNL1        0.0524
     84 H           5.7268   -0.5449    0.0000 H       1  UNL1        0.0524
     85 H          10.6093    3.3242    0.0000 H       1  UNL1        0.0242
     86 H          10.9305    2.5083    0.0000 H       1  UNL1        0.0242
     87 H          10.1147    2.1871    0.0000 H       1  UNL1        0.0242
     88 H           8.0017    5.4258    0.0000 H       1  UNL1        0.0524
     89 H           8.8487    5.1989    0.0000 H       1  UNL1        0.0524
     90 H           8.6217    4.3520    0.0000 H       1  UNL1        0.0524
     91 H           2.7944    5.8955    0.0000 H       1  UNL1        0.0524
     92 H           3.4644    6.4611    0.0000 H       1  UNL1        0.0524
     93 H           4.0300    5.7912    0.0000 H       1  UNL1        0.0524
     94 H           2.6564    5.5492    0.0000 H       1  UNL1        0.0626
     95 H           1.0413    3.2548    0.0000 H       1  UNL1        0.0626
     96 H          10.0438   -0.2262    0.0000 H       1  UNL1        0.0626
     97 H           1.3317    6.4818    0.0000 H       1  UNL1        0.0618
     98 H          -0.2834    4.1873    0.0000 H       1  UNL1        0.0618
     99 H          -0.1382    5.8008    0.0000 H       1  UNL1        0.0618
    100 H          10.0438   -3.4662    0.0000 H       1  UNL1        0.0636
    101 H          11.4467   -1.0362    0.0000 H       1  UNL1        0.0618
    102 H          11.4467   -2.6562    0.0000 H       1  UNL1        0.0618
    103 H           8.3258   -5.3258    0.0000 H       1  UNL1        0.0396
    104 H           7.6896   -5.1626    0.0000 H       1  UNL1        0.0366
    105 H           7.2256   -4.4747    0.0000 H       1  UNL1        0.0366
    106 H           9.6509   -5.6934    0.0000 H       1  UNL1        0.0237
    107 H           9.2258   -6.4602    0.0000 H       1  UNL1        0.0237
    108 H           8.4589   -6.0351    0.0000 H       1  UNL1        0.0237
@<TRIPOS>BOND
     1    18     1    1
     2     1    78    1
     3    20     2    1
     4     2    79    1
     5    21     3    1
     6     3    34    1
     7    23     4    1
     8     4    36    1
     9    26     5    1
    10     5    37    1
    11     6    30    1
    12     6    38    1
    13     7    32    1
    14     7    39    1
    15     8    37    2
    16     9    39    2
    17    10    52    2
    18    11    53    2
    19    12    16    1
    20    12    28    1
    21    12    33    1
    22    13    44    1
    23    13    52   am
    24    13    53   am
    25    14    15    1
    26    14    16    1
    27    14    17    1
    28    14    23    1
    29    15    21    1
    30    15    22    1
    31    15    57    1
    32    16    18    1
    33    16    58    1
    34    17    19    1
    35    17    24    1
    36    17    59    1
    37    18    20    1
    38    18    21    1
    39    19    20    1
    40    19    26    1
    41    19    60    1
    42    20    27    1
    43    21    61    1
    44    22    28    1
    45    22    29    1
    46    22    32    1
    47    23    31    1
    48    23    62    1
    49    24    25    1
    50    24    63    1
    51    24    64    1
    52    25    26    1
    53    25    30    1
    54    25    65    1
    55    26    66    1
    56    27    30    1
    57    27    67    1
    58    27    68    1
    59    28    69    1
    60    28    70    1
    61    29    31    1
    62    29    71    1
    63    29    72    1
    64    30    73    1
    65    31    74    1
    66    31    75    1
    67    32    76    1
    68    32    77    1
    69    33    35    1
    70    33    80    1
    71    33    81    1
    72    34    82    1
    73    34    83    1
    74    34    84    1
    75    35    85    1
    76    35    86    1
    77    35    87    1
    78    36    88    1
    79    36    89    1
    80    36    90    1
    81    37    40    1
    82    38    91    1
    83    38    92    1
    84    38    93    1
    85    39    41    1
    86    40    42   ar
    87    40    43   ar
    88    41    44   ar
    89    41    45   ar
    90    42    46   ar
    91    42    94    1
    92    43    47   ar
    93    43    95    1
    94    44    49   ar
    95    45    50   ar
    96    45    96    1
    97    46    48   ar
    98    46    97    1
    99    47    48   ar
   100    47    98    1
   101    48    99    1
   102    49    51   ar
   103    49   100    1
   104    50    51   ar
   105    50   101    1
   106    51   102    1
   107    52    54    1
   108    53    55    1
   109    54    55    1
   110    54    56    1
   111    54   103    1
   112    55   104    1
   113    55   105    1
   114    56   106    1
   115    56   107    1
   116    56   108    1
