@<TRIPOS>MOLECULE
IMPHY017080
 21 22 0 0 0
SMALL
GASTEIGER

@<TRIPOS>ATOM
      1 N           3.7320   -2.0000    0.0000 N.ar    1  UNL1       -0.2627
      2 C           2.8660    0.5000    0.0000 C.ar    1  UNL1       -0.0164
      3 C           2.8660   -0.5000    0.0000 C.ar    1  UNL1        0.0002
      4 C           3.7320    1.0000    0.0000 C.ar    1  UNL1       -0.0540
      5 C           2.0000    1.0000    0.0000 C.ar    1  UNL1       -0.0540
      6 C           2.0000   -1.0000    0.0000 C.ar    1  UNL1       -0.0512
      7 C           3.7320   -1.0000    0.0000 C.ar    1  UNL1        0.0352
      8 C           3.7320    2.0000    0.0000 C.ar    1  UNL1       -0.0612
      9 C           2.0000    2.0000    0.0000 C.ar    1  UNL1       -0.0612
     10 C           2.8660    2.5000    0.0000 C.ar    1  UNL1       -0.0617
     11 C           2.0000   -2.0000    0.0000 C.ar    1  UNL1       -0.0430
     12 C           2.8660   -2.5000    0.0000 C.ar    1  UNL1        0.0276
     13 H           4.2690    0.6900    0.0000 H       1  UNL1        0.0624
     14 H           1.4631    0.6900    0.0000 H       1  UNL1        0.0624
     15 H           1.4631   -0.6900    0.0000 H       1  UNL1        0.0625
     16 H           4.2690   -0.6900    0.0000 H       1  UNL1        0.0836
     17 H           4.2690    2.3100    0.0000 H       1  UNL1        0.0618
     18 H           1.4631    2.3100    0.0000 H       1  UNL1        0.0618
     19 H           2.8660    3.1200    0.0000 H       1  UNL1        0.0618
     20 H           1.4631   -2.3100    0.0000 H       1  UNL1        0.0633
     21 H           2.8660   -3.1200    0.0000 H       1  UNL1        0.0829
@<TRIPOS>BOND
     1     1     7   ar
     2     1    12   ar
     3     2     3    1
     4     2     4   ar
     5     2     5   ar
     6     3     6   ar
     7     3     7   ar
     8     4     8   ar
     9     4    13    1
    10     5     9   ar
    11     5    14    1
    12     6    11   ar
    13     6    15    1
    14     7    16    1
    15     8    10   ar
    16     8    17    1
    17     9    10   ar
    18     9    18    1
    19    10    19    1
    20    11    12   ar
    21    11    20    1
    22    12    21    1
