@<TRIPOS>MOLECULE
IMPHY002110
 206 216 0 0 0
SMALL
GASTEIGER

@<TRIPOS>ATOM
      1 O           7.7998   -7.6263    0.0000 O.3     1  UNL1       -0.3418
      2 O           5.9924   -6.5735    0.0000 O.3     1  UNL1       -0.3892
      3 O          10.3223   -1.3274    0.0000 O.3     1  UNL1       -0.3941
      4 O           9.5536    1.6532    0.0000 O.3     1  UNL1       -0.4318
      5 O          10.2439   -6.9346    0.0000 O.3     1  UNL1       -0.4802
      6 O          10.2306   -5.2026    0.0000 O.2     1  UNL1       -0.2503
      7 O          10.4369    0.1633    0.0000 O.2     1  UNL1       -0.2501
      8 O           6.0677   -7.6263    0.0000 O.3     1  UNL1       -0.3405
      9 O          11.2855    1.6732    0.0000 O.3     1  UNL1       -0.3327
     10 O           7.7998   -9.6263    0.0000 O.3     1  UNL1       -0.3841
     11 O           6.0677  -10.6263    0.0000 O.3     1  UNL1       -0.3864
     12 O           9.5304    3.6530    0.0000 O.3     1  UNL1       -0.3365
     13 O           4.3357   -9.6263    0.0000 O.3     1  UNL1       -0.3865
     14 O          11.2508    4.6730    0.0000 O.3     1  UNL1       -0.3852
     15 O          12.9943    3.6931    0.0000 O.3     1  UNL1       -0.4529
     16 O           3.4696   -8.1263    0.0000 O.3     1  UNL1       -0.3924
     17 O          10.3791    5.1629    0.0000 O.3     1  UNL1       -0.3431
     18 O           7.7869    4.6329    0.0000 O.3     1  UNL1       -0.3841
     19 O           7.7638    6.6328    0.0000 O.3     1  UNL1       -0.3864
     20 O           9.4842    7.6528    0.0000 O.3     1  UNL1       -0.3402
     21 O          13.8776    2.2032    0.0000 O.2     1  UNL1       -0.2456
     22 O           7.7522    7.6327    0.0000 O.3     1  UNL1       -0.3460
     23 O           9.4610    9.6526    0.0000 O.3     1  UNL1       -0.3841
     24 O           7.7176   10.6325    0.0000 O.3     1  UNL1       -0.3864
     25 O           5.9972    9.6126    0.0000 O.3     1  UNL1       -0.3405
     26 O          17.2952    6.2430    0.0000 O.3     1  UNL1       -0.4914
     27 O           5.1486    8.1026    0.0000 O.3     1  UNL1       -0.3405
     28 O          19.0387    5.2631    0.0000 O.3     1  UNL1       -0.4915
     29 O           4.2537   10.5925    0.0000 O.3     1  UNL1       -0.3841
     30 O           2.5333    9.5725    0.0000 O.3     1  UNL1       -0.3864
     31 O           2.5564    7.5726    0.0000 O.3     1  UNL1       -0.3865
     32 O           3.4398    6.0828    0.0000 O.3     1  UNL1       -0.3924
     33 C           8.7008   -2.9261    0.0000 C.3     1  UNL1       -0.0170
     34 C           7.8367   -3.4294    0.0000 C.3     1  UNL1       -0.0256
     35 C           7.8247   -4.4710    0.0000 C.3     1  UNL1       -0.0221
     36 C           8.6970   -1.9261    0.0000 C.3     1  UNL1        0.0208
     37 C           8.7248   -4.9953    0.0000 C.3     1  UNL1       -0.0172
     38 C           9.6128   -3.4294    0.0000 C.3     1  UNL1       -0.0462
     39 C           7.8290   -1.4294    0.0000 C.2     1  UNL1       -0.0604
     40 C           9.6248   -4.4710    0.0000 C.3     1  UNL1       -0.0481
     41 C           8.7373   -6.0802    0.0000 C.3     1  UNL1        0.0966
     42 C           7.8089   -0.3880    0.0000 C.3     1  UNL1       -0.0031
     43 C           6.9688   -2.9327    0.0000 C.3     1  UNL1       -0.0306
     44 C           6.8748   -4.9953    0.0000 C.3     1  UNL1       -0.0184
     45 C           9.6050   -1.4157    0.0000 C.3     1  UNL1       -0.0400
     46 C           8.7049    0.1432    0.0000 C.3     1  UNL1        0.0744
     47 C           9.6850   -2.7486    0.0000 C.3     1  UNL1       -0.0584
     48 C           9.6090   -0.3741    0.0000 C.3     1  UNL1       -0.0358
     49 C           7.7998   -6.6263    0.0000 C.3     1  UNL1        0.1033
     50 C           6.9649   -1.9328    0.0000 C.2     1  UNL1       -0.0836
     51 C           6.8622   -6.0802    0.0000 C.3     1  UNL1        0.0830
     52 C           6.9606   -3.9676    0.0000 C.3     1  UNL1       -0.0589
     53 C           9.6824   -2.0959    0.0000 C.3     1  UNL1        0.0540
     54 C           6.8550    0.1290    0.0000 C.3     1  UNL1       -0.0403
     55 C           8.7091    1.2282    0.0000 C.3     1  UNL1       -0.0362
     56 C           6.8341    1.2138    0.0000 C.3     1  UNL1       -0.0343
     57 C           7.7674    1.7671    0.0000 C.3     1  UNL1       -0.0468
     58 C           9.2440   -6.9423    0.0000 C.3     1  UNL1       -0.0466
     59 C           9.7373   -6.0725    0.0000 C.2     1  UNL1        0.3136
     60 C           9.5651    0.6532    0.0000 C.2     1  UNL1        0.3161
     61 C           6.3208    2.0720    0.0000 C.3     1  UNL1       -0.0598
     62 C           5.8342    1.1984    0.0000 C.3     1  UNL1       -0.0598
     63 C           6.9337   -8.1263    0.0000 C.3     1  UNL1        0.1884
     64 C           6.9337   -9.1263    0.0000 C.3     1  UNL1        0.1341
     65 C          10.4137    2.1631    0.0000 C.3     1  UNL1        0.2341
     66 C           6.0677   -9.6263    0.0000 C.3     1  UNL1        0.1141
     67 C           5.2017   -8.1263    0.0000 C.3     1  UNL1        0.1130
     68 C          10.4022    3.1631    0.0000 C.3     1  UNL1        0.1531
     69 C           5.2017   -9.1263    0.0000 C.3     1  UNL1        0.1119
     70 C          11.2624    3.6730    0.0000 C.3     1  UNL1        0.1265
     71 C          12.1457    2.1832    0.0000 C.3     1  UNL1        0.0994
     72 C          12.1341    3.1831    0.0000 C.3     1  UNL1        0.1575
     73 C           4.3357   -7.6263    0.0000 C.3     1  UNL1        0.0730
     74 C          13.0174    1.6932    0.0000 C.3     1  UNL1       -0.0350
     75 C           9.5189    4.6530    0.0000 C.3     1  UNL1        0.1885
     76 C           8.6471    5.1429    0.0000 C.3     1  UNL1        0.1341
     77 C           8.6356    6.1428    0.0000 C.3     1  UNL1        0.1143
     78 C          13.8661    3.2031    0.0000 C.2     1  UNL1        0.3324
     79 C          10.3675    6.1629    0.0000 C.3     1  UNL1        0.0877
     80 C           9.4957    6.6528    0.0000 C.3     1  UNL1        0.1160
     81 C          11.2277    6.6728    0.0000 C.3     1  UNL1       -0.0361
     82 C          14.7262    3.7131    0.0000 C.2     1  UNL1        0.0231
     83 C           8.6124    8.1427    0.0000 C.3     1  UNL1        0.1880
     84 C          15.5980    3.2232    0.0000 C.2     1  UNL1       -0.0477
     85 C           8.6009    9.1426    0.0000 C.3     1  UNL1        0.1341
     86 C          16.4582    3.7331    0.0000 C.ar    1  UNL1       -0.0211
     87 C           7.7291    9.6326    0.0000 C.3     1  UNL1        0.1141
     88 C           6.8805    8.1227    0.0000 C.3     1  UNL1        0.0796
     89 C           6.8689    9.1226    0.0000 C.3     1  UNL1        0.1134
     90 C          16.4466    4.7331    0.0000 C.ar    1  UNL1       -0.0091
     91 C          17.3299    3.2432    0.0000 C.ar    1  UNL1       -0.0509
     92 C          17.3068    5.2430    0.0000 C.ar    1  UNL1        0.1620
     93 C          18.1901    3.7532    0.0000 C.ar    1  UNL1       -0.0157
     94 C           5.1370    9.1026    0.0000 C.3     1  UNL1        0.1884
     95 C          18.1785    4.7531    0.0000 C.ar    1  UNL1        0.1615
     96 C           4.2652    9.5925    0.0000 C.3     1  UNL1        0.1341
     97 C           3.4051    9.0826    0.0000 C.3     1  UNL1        0.1141
     98 C           4.2884    7.5927    0.0000 C.3     1  UNL1        0.1130
     99 C           3.4166    8.0826    0.0000 C.3     1  UNL1        0.1119
    100 C          18.1554    6.7530    0.0000 C.3     1  UNL1        0.0790
    101 C           4.2999    6.5927    0.0000 C.3     1  UNL1        0.0730
    102 C          19.9105    4.7731    0.0000 C.3     1  UNL1        0.0790
    103 H           8.5712   -3.8572    0.0000 H       1  UNL1        0.0315
    104 H           9.4641   -5.4146    0.0000 H       1  UNL1        0.0317
    105 H          10.2248   -3.5284    0.0000 H       1  UNL1        0.0271
    106 H           9.8151   -2.8433    0.0000 H       1  UNL1        0.0271
    107 H           9.8406   -5.0522    0.0000 H       1  UNL1        0.0269
    108 H          10.2344   -4.3578    0.0000 H       1  UNL1        0.0269
    109 H           7.0828   -0.8299    0.0000 H       1  UNL1        0.0357
    110 H           6.3578   -2.8274    0.0000 H       1  UNL1        0.0310
    111 H           6.7590   -3.5162    0.0000 H       1  UNL1        0.0310
    112 H           6.6725   -4.4092    0.0000 H       1  UNL1        0.0296
    113 H           6.2627   -5.0943    0.0000 H       1  UNL1        0.0296
    114 H           9.8118   -2.0002    0.0000 H       1  UNL1        0.0275
    115 H          10.2163   -1.3120    0.0000 H       1  UNL1        0.0275
    116 H           9.7950   -3.3588    0.0000 H       1  UNL1        0.0235
    117 H          10.2951   -2.6386    0.0000 H       1  UNL1        0.0235
    118 H           9.5749   -2.1385    0.0000 H       1  UNL1        0.0235
    119 H          10.2195   -0.4825    0.0000 H       1  UNL1        0.0276
    120 H           9.8203    0.2088    0.0000 H       1  UNL1        0.0276
    121 H           8.3373   -6.9352    0.0000 H       1  UNL1        0.0634
    122 H           6.4268   -1.6248    0.0000 H       1  UNL1        0.0572
    123 H           6.3283   -5.7650    0.0000 H       1  UNL1        0.0619
    124 H           7.2727   -3.4319    0.0000 H       1  UNL1        0.0235
    125 H           6.4248   -3.6556    0.0000 H       1  UNL1        0.0235
    126 H           6.6485   -4.5034    0.0000 H       1  UNL1        0.0235
    127 H           9.4726   -2.6794    0.0000 H       1  UNL1        0.0566
    128 H          10.2206   -2.4038    0.0000 H       1  UNL1        0.0566
    129 H           6.2422    0.2233    0.0000 H       1  UNL1        0.0276
    130 H           6.6572   -0.4586    0.0000 H       1  UNL1        0.0276
    131 H           9.3196    1.1198    0.0000 H       1  UNL1        0.0276
    132 H           8.9204    1.8111    0.0000 H       1  UNL1        0.0276
    133 H           8.1629    2.2446    0.0000 H       1  UNL1        0.0271
    134 H           7.3646    2.2384    0.0000 H       1  UNL1        0.0271
    135 H           8.7094   -7.2564    0.0000 H       1  UNL1        0.0241
    136 H           9.5581   -7.4768    0.0000 H       1  UNL1        0.0241
    137 H           9.7785   -6.6282    0.0000 H       1  UNL1        0.0241
    138 H           6.8529    2.3902    0.0000 H       1  UNL1        0.0235
    139 H           6.0026    2.6041    0.0000 H       1  UNL1        0.0235
    140 H           5.7887    1.7537    0.0000 H       1  UNL1        0.0235
    141 H           5.8247    1.8183    0.0000 H       1  UNL1        0.0235
    142 H           5.2143    1.1888    0.0000 H       1  UNL1        0.0235
    143 H           5.8438    0.5784    0.0000 H       1  UNL1        0.0235
    144 H           5.4578   -6.2594    0.0000 H       1  UNL1        0.2099
    145 H          10.9333   -1.4327    0.0000 H       1  UNL1        0.2094
    146 H           6.9337   -7.5063    0.0000 H       1  UNL1        0.0938
    147 H          10.8639   -6.9298    0.0000 H       1  UNL1        0.2951
    148 H           7.4707   -8.8163    0.0000 H       1  UNL1        0.0671
    149 H           9.8733    2.4669    0.0000 H       1  UNL1        0.1085
    150 H           6.6046   -9.9363    0.0000 H       1  UNL1        0.0648
    151 H           5.2017   -7.5063    0.0000 H       1  UNL1        0.0647
    152 H          10.3950    3.7830    0.0000 H       1  UNL1        0.0687
    153 H           4.6647   -8.8163    0.0000 H       1  UNL1        0.0647
    154 H           7.7998  -10.2463    0.0000 H       1  UNL1        0.2101
    155 H          11.7957    3.9892    0.0000 H       1  UNL1        0.0659
    156 H          12.1529    1.5632    0.0000 H       1  UNL1        0.0632
    157 H          12.6746    2.8793    0.0000 H       1  UNL1        0.0787
    158 H           4.7342   -7.1513    0.0000 H       1  UNL1        0.0584
    159 H           3.9371   -7.1513    0.0000 H       1  UNL1        0.0584
    160 H           5.5308  -10.9363    0.0000 H       1  UNL1        0.2100
    161 H           4.3357  -10.2463    0.0000 H       1  UNL1        0.2100
    162 H          12.7137    1.1527    0.0000 H       1  UNL1        0.0256
    163 H          13.5579    1.3894    0.0000 H       1  UNL1        0.0256
    164 H          13.3212    2.2337    0.0000 H       1  UNL1        0.0256
    165 H           8.9856    4.3368    0.0000 H       1  UNL1        0.0938
    166 H          11.7841    4.9892    0.0000 H       1  UNL1        0.2101
    167 H           2.9327   -7.8163    0.0000 H       1  UNL1        0.2095
    168 H           8.1066    5.4467    0.0000 H       1  UNL1        0.0671
    169 H           8.6284    6.7628    0.0000 H       1  UNL1        0.0648
    170 H          10.9080    5.8591    0.0000 H       1  UNL1        0.0621
    171 H          10.0291    6.9690    0.0000 H       1  UNL1        0.0650
    172 H           7.2464    4.9367    0.0000 H       1  UNL1        0.2101
    173 H          11.5439    6.1395    0.0000 H       1  UNL1        0.0255
    174 H          11.7610    6.9890    0.0000 H       1  UNL1        0.0255
    175 H          10.9115    7.2062    0.0000 H       1  UNL1        0.0255
    176 H          14.7191    4.3331    0.0000 H       1  UNL1        0.0689
    177 H           7.2305    6.3166    0.0000 H       1  UNL1        0.2100
    178 H           8.6196    7.5227    0.0000 H       1  UNL1        0.0937
    179 H          15.6052    2.6032    0.0000 H       1  UNL1        0.0626
    180 H           9.1413    8.8389    0.0000 H       1  UNL1        0.0671
    181 H           8.2624    9.9488    0.0000 H       1  UNL1        0.0648
    182 H           6.2687    8.2233    0.0000 H       1  UNL1        0.0587
    183 H           6.6752    7.5376    0.0000 H       1  UNL1        0.0587
    184 H           6.3356    8.8064    0.0000 H       1  UNL1        0.0647
    185 H           9.4539   10.2726    0.0000 H       1  UNL1        0.2101
    186 H          15.9061    5.0368    0.0000 H       1  UNL1        0.0661
    187 H          17.3371    2.6232    0.0000 H       1  UNL1        0.0625
    188 H           7.1771   10.9363    0.0000 H       1  UNL1        0.2100
    189 H          18.7306    3.4494    0.0000 H       1  UNL1        0.0655
    190 H           5.1298    9.7225    0.0000 H       1  UNL1        0.0938
    191 H           3.7248    9.8963    0.0000 H       1  UNL1        0.0671
    192 H           2.8718    8.7664    0.0000 H       1  UNL1        0.0648
    193 H           4.8289    7.2889    0.0000 H       1  UNL1        0.0647
    194 H           4.3667    7.7788    0.0000 H       1  UNL1        0.0647
    195 H          18.4716    6.2196    0.0000 H       1  UNL1        0.0660
    196 H          18.6887    7.0691    0.0000 H       1  UNL1        0.0660
    197 H          17.8392    7.2863    0.0000 H       1  UNL1        0.0660
    198 H           3.7132   10.8962    0.0000 H       1  UNL1        0.2101
    199 H           4.5187    6.0126    0.0000 H       1  UNL1        0.0584
    200 H           4.9092    6.7074    0.0000 H       1  UNL1        0.0584
    201 H          19.6067    4.2326    0.0000 H       1  UNL1        0.0660
    202 H          20.4510    4.4694    0.0000 H       1  UNL1        0.0660
    203 H          20.2143    5.3136    0.0000 H       1  UNL1        0.0660
    204 H           2.0000    9.2563    0.0000 H       1  UNL1        0.2100
    205 H           2.0160    7.8764    0.0000 H       1  UNL1        0.2100
    206 H           3.4469    5.4628    0.0000 H       1  UNL1        0.2095
@<TRIPOS>BOND
     1    49     1    1
     2    63     1    1
     3    51     2    1
     4     2   144    1
     5     3    53    1
     6     3   145    1
     7     4    60    1
     8    65     4    1
     9     5    59    1
    10     5   147    1
    11     6    59    2
    12     7    60    2
    13     8    63    1
    14     8    67    1
    15     9    65    1
    16     9    71    1
    17    64    10    1
    18    10   154    1
    19    66    11    1
    20    11   160    1
    21    68    12    1
    22    75    12    1
    23    69    13    1
    24    13   161    1
    25    70    14    1
    26    14   166    1
    27    72    15    1
    28    15    78    1
    29    16    73    1
    30    16   167    1
    31    17    75    1
    32    17    79    1
    33    76    18    1
    34    18   172    1
    35    77    19    1
    36    19   177    1
    37    80    20    1
    38    83    20    1
    39    21    78    2
    40    22    83    1
    41    22    88    1
    42    85    23    1
    43    23   185    1
    44    87    24    1
    45    24   188    1
    46    89    25    1
    47    94    25    1
    48    26    92    1
    49    26   100    1
    50    27    94    1
    51    27    98    1
    52    28    95    1
    53    28   102    1
    54    96    29    1
    55    29   198    1
    56    97    30    1
    57    30   204    1
    58    99    31    1
    59    31   205    1
    60    32   101    1
    61    32   206    1
    62    33    34    1
    63    33    36    1
    64    33    38    1
    65    33    47    1
    66    34    35    1
    67    34    43    1
    68    34   103    1
    69    35    37    1
    70    35    44    1
    71    35    52    1
    72    36    39    1
    73    36    45    1
    74    36    53    1
    75    37    40    1
    76    37    41    1
    77    37   104    1
    78    38    40    1
    79    38   105    1
    80    38   106    1
    81    39    42    1
    82    39    50    2
    83    40   107    1
    84    40   108    1
    85    41    49    1
    86    41    58    1
    87    41    59    1
    88    42    46    1
    89    42    54    1
    90    42   109    1
    91    43    50    1
    92    43   110    1
    93    43   111    1
    94    44    51    1
    95    44   112    1
    96    44   113    1
    97    45    48    1
    98    45   114    1
    99    45   115    1
   100    46    48    1
   101    46    55    1
   102    46    60    1
   103    47   116    1
   104    47   117    1
   105    47   118    1
   106    48   119    1
   107    48   120    1
   108    49    51    1
   109    49   121    1
   110    50   122    1
   111    51   123    1
   112    52   124    1
   113    52   125    1
   114    52   126    1
   115    53   127    1
   116    53   128    1
   117    54    56    1
   118    54   129    1
   119    54   130    1
   120    55    57    1
   121    55   131    1
   122    55   132    1
   123    56    57    1
   124    56    61    1
   125    56    62    1
   126    57   133    1
   127    57   134    1
   128    58   135    1
   129    58   136    1
   130    58   137    1
   131    61   138    1
   132    61   139    1
   133    61   140    1
   134    62   141    1
   135    62   142    1
   136    62   143    1
   137    63    64    1
   138    63   146    1
   139    64    66    1
   140    64   148    1
   141    65    68    1
   142    65   149    1
   143    66    69    1
   144    66   150    1
   145    67    69    1
   146    67    73    1
   147    67   151    1
   148    68    70    1
   149    68   152    1
   150    69   153    1
   151    70    72    1
   152    70   155    1
   153    71    72    1
   154    71    74    1
   155    71   156    1
   156    72   157    1
   157    73   158    1
   158    73   159    1
   159    74   162    1
   160    74   163    1
   161    74   164    1
   162    75    76    1
   163    75   165    1
   164    76    77    1
   165    76   168    1
   166    77    80    1
   167    77   169    1
   168    78    82    1
   169    79    80    1
   170    79    81    1
   171    79   170    1
   172    80   171    1
   173    81   173    1
   174    81   174    1
   175    81   175    1
   176    82    84    2
   177    82   176    1
   178    83    85    1
   179    83   178    1
   180    84    86    1
   181    84   179    1
   182    85    87    1
   183    85   180    1
   184    86    90   ar
   185    86    91   ar
   186    87    89    1
   187    87   181    1
   188    88    89    1
   189    88   182    1
   190    88   183    1
   191    89   184    1
   192    90    92   ar
   193    90   186    1
   194    91    93   ar
   195    91   187    1
   196    92    95   ar
   197    93    95   ar
   198    93   189    1
   199    94    96    1
   200    94   190    1
   201    96    97    1
   202    96   191    1
   203    97    99    1
   204    97   192    1
   205    98    99    1
   206    98   101    1
   207    98   193    1
   208    99   194    1
   209   100   195    1
   210   100   196    1
   211   100   197    1
   212   101   199    1
   213   101   200    1
   214   102   201    1
   215   102   202    1
   216   102   203    1
