@<TRIPOS>MOLECULE
IMPHY005082
 52 53 0 0 0
SMALL
GASTEIGER

@<TRIPOS>ATOM
      1 O           6.0010   -1.2500    0.0000 O.3     1  UNL1       -0.4423
      2 O           6.8671    1.2500    0.0000 O.3     1  UNL1       -0.4423
      3 O           5.1350    1.2500    0.0000 O.3     1  UNL1       -0.4779
      4 O           8.5991    0.2500    0.0000 O.3     1  UNL1       -0.4779
      5 O           4.2690   -0.2500    0.0000 O.2     1  UNL1       -0.2467
      6 O           7.7331   -1.2500    0.0000 O.2     1  UNL1       -0.2467
      7 O           4.2690   -1.2500    0.0000 O.2     1  UNL1       -0.2456
      8 O           8.5991    1.2500    0.0000 O.2     1  UNL1       -0.2456
      9 O           2.5369   -6.2500    0.0000 O.3     1  UNL1       -0.5033
     10 O          10.3312    6.2500    0.0000 O.3     1  UNL1       -0.5033
     11 O           4.2690   -7.2500    0.0000 O.3     1  UNL1       -0.5033
     12 O           8.5991    7.2500    0.0000 O.3     1  UNL1       -0.5033
     13 C           6.8671    0.2500    0.0000 C.3     1  UNL1        0.2458
     14 C           6.0010   -0.2500    0.0000 C.3     1  UNL1        0.2458
     15 C           5.1350    0.2500    0.0000 C.2     1  UNL1        0.3504
     16 C           7.7331   -0.2500    0.0000 C.2     1  UNL1        0.3504
     17 C           5.1350   -1.7500    0.0000 C.2     1  UNL1        0.3329
     18 C           7.7331    1.7500    0.0000 C.2     1  UNL1        0.3329
     19 C           4.2690   -4.2500    0.0000 C.ar    1  UNL1       -0.0211
     20 C           8.5991    4.2500    0.0000 C.ar    1  UNL1       -0.0211
     21 C           5.1350   -2.7500    0.0000 C.2     1  UNL1        0.0231
     22 C           7.7331    2.7500    0.0000 C.2     1  UNL1        0.0231
     23 C           4.2690   -3.2500    0.0000 C.2     1  UNL1       -0.0477
     24 C           8.5991    3.2500    0.0000 C.2     1  UNL1       -0.0477
     25 C           3.4030   -4.7500    0.0000 C.ar    1  UNL1       -0.0094
     26 C           9.4651    4.7500    0.0000 C.ar    1  UNL1       -0.0094
     27 C           5.1350   -4.7500    0.0000 C.ar    1  UNL1       -0.0509
     28 C           7.7331    4.7500    0.0000 C.ar    1  UNL1       -0.0509
     29 C           3.4030   -5.7500    0.0000 C.ar    1  UNL1        0.1588
     30 C           9.4651    5.7500    0.0000 C.ar    1  UNL1        0.1588
     31 C           5.1350   -5.7500    0.0000 C.ar    1  UNL1       -0.0160
     32 C           7.7331    5.7500    0.0000 C.ar    1  UNL1       -0.0160
     33 C           4.2690   -6.2500    0.0000 C.ar    1  UNL1        0.1582
     34 C           8.5991    6.2500    0.0000 C.ar    1  UNL1        0.1582
     35 H           6.5380   -0.5600    0.0000 H       1  UNL1        0.0898
     36 H           6.3301    0.5600    0.0000 H       1  UNL1        0.0898
     37 H           5.6720   -3.0600    0.0000 H       1  UNL1        0.0689
     38 H           7.1962    3.0600    0.0000 H       1  UNL1        0.0689
     39 H           3.7320   -2.9400    0.0000 H       1  UNL1        0.0626
     40 H           9.1360    2.9400    0.0000 H       1  UNL1        0.0626
     41 H           2.8660   -4.4400    0.0000 H       1  UNL1        0.0661
     42 H          10.0021    4.4400    0.0000 H       1  UNL1        0.0661
     43 H           5.6720   -4.4400    0.0000 H       1  UNL1        0.0625
     44 H           7.1962    4.4400    0.0000 H       1  UNL1        0.0625
     45 H           5.6720   -6.0600    0.0000 H       1  UNL1        0.0655
     46 H           7.1962    6.0600    0.0000 H       1  UNL1        0.0655
     47 H           4.5981    1.5600    0.0000 H       1  UNL1        0.2952
     48 H           9.1360   -0.0600    0.0000 H       1  UNL1        0.2952
     49 H           2.0000   -5.9400    0.0000 H       1  UNL1        0.2923
     50 H          10.8681    5.9400    0.0000 H       1  UNL1        0.2923
     51 H           8.0622    7.5600    0.0000 H       1  UNL1        0.2923
     52 H           4.8059   -7.5600    0.0000 H       1  UNL1        0.2923
@<TRIPOS>BOND
     1    14     1    1
     2     1    17    1
     3    13     2    1
     4     2    18    1
     5     3    15    1
     6     3    47    1
     7     4    16    1
     8     4    48    1
     9     5    15    2
    10     6    16    2
    11     7    17    2
    12     8    18    2
    13     9    29    1
    14     9    49    1
    15    10    30    1
    16    10    50    1
    17    11    33    1
    18    11    52    1
    19    12    34    1
    20    12    51    1
    21    13    14    1
    22    13    16    1
    23    13    36    1
    24    14    15    1
    25    14    35    1
    26    17    21    1
    27    18    22    1
    28    19    23    1
    29    19    25   ar
    30    19    27   ar
    31    20    24    1
    32    20    26   ar
    33    20    28   ar
    34    21    23    2
    35    21    37    1
    36    22    24    2
    37    22    38    1
    38    23    39    1
    39    24    40    1
    40    25    29   ar
    41    25    41    1
    42    26    30   ar
    43    26    42    1
    44    27    31   ar
    45    27    43    1
    46    28    32   ar
    47    28    44    1
    48    29    33   ar
    49    30    34   ar
    50    31    33   ar
    51    31    45    1
    52    32    34   ar
    53    32    46    1
