@<TRIPOS>MOLECULE
IMPHY017794
 39 38 0 0 0
SMALL
GASTEIGER

@<TRIPOS>ATOM
      1 O           4.5981    0.0950    0.0000 O.3     1  UNL1       -0.4603
      2 O           7.1962    1.5950    0.0000 O.3     1  UNL1       -0.3944
      3 O           3.7320   -1.4050    0.0000 O.2     1  UNL1       -0.2505
      4 C           6.3301    0.0950    0.0000 C.3     1  UNL1        0.0255
      5 C           5.4641   -0.4050    0.0000 C.3     1  UNL1        0.1125
      6 C           5.4641   -1.4050    0.0000 C.3     1  UNL1       -0.0089
      7 C           7.1962    0.5950    0.0000 C.3     1  UNL1        0.0527
      8 C           6.8301   -0.7710    0.0000 C.3     1  UNL1       -0.0543
      9 C           5.8301    0.9610    0.0000 C.3     1  UNL1       -0.0543
     10 C           4.5981   -1.9050    0.0000 C.3     1  UNL1       -0.0593
     11 C           6.3301   -1.9050    0.0000 C.3     1  UNL1       -0.0593
     12 C           3.7320   -0.4050    0.0000 C.2     1  UNL1        0.3100
     13 C           2.8660    0.0950    0.0000 C.3     1  UNL1        0.0508
     14 C           2.0000   -0.4050    0.0000 C.3     1  UNL1       -0.0525
     15 C           2.8660    1.0950    0.0000 C.3     1  UNL1       -0.0525
     16 H           5.4641    0.2150    0.0000 H       1  UNL1        0.0742
     17 H           5.4641   -2.0250    0.0000 H       1  UNL1        0.0331
     18 H           7.4082    0.0124    0.0000 H       1  UNL1        0.0564
     19 H           7.8067    0.7027    0.0000 H       1  UNL1        0.0564
     20 H           6.2932   -1.0810    0.0000 H       1  UNL1        0.0237
     21 H           7.1401   -1.3080    0.0000 H       1  UNL1        0.0237
     22 H           7.3671   -0.4610    0.0000 H       1  UNL1        0.0237
     23 H           6.3671    1.2710    0.0000 H       1  UNL1        0.0237
     24 H           5.5201    1.4980    0.0000 H       1  UNL1        0.0237
     25 H           5.2932    0.6510    0.0000 H       1  UNL1        0.0237
     26 H           4.2881   -1.3681    0.0000 H       1  UNL1        0.0233
     27 H           4.0611   -2.2150    0.0000 H       1  UNL1        0.0233
     28 H           4.9081   -2.4419    0.0000 H       1  UNL1        0.0233
     29 H           6.0201   -2.4419    0.0000 H       1  UNL1        0.0233
     30 H           6.8671   -2.2150    0.0000 H       1  UNL1        0.0233
     31 H           6.6401   -1.3681    0.0000 H       1  UNL1        0.0233
     32 H           2.8660   -0.5250    0.0000 H       1  UNL1        0.0408
     33 H           7.7331    1.9050    0.0000 H       1  UNL1        0.2094
     34 H           1.6900    0.1319    0.0000 H       1  UNL1        0.0237
     35 H           1.4631   -0.7150    0.0000 H       1  UNL1        0.0237
     36 H           2.3100   -0.9419    0.0000 H       1  UNL1        0.0237
     37 H           3.4860    1.0950    0.0000 H       1  UNL1        0.0237
     38 H           2.8660    1.7150    0.0000 H       1  UNL1        0.0237
     39 H           2.2460    1.0950    0.0000 H       1  UNL1        0.0237
@<TRIPOS>BOND
     1     1     5    1
     2     1    12    1
     3     2     7    1
     4     2    33    1
     5     3    12    2
     6     4     5    1
     7     4     7    1
     8     4     8    1
     9     4     9    1
    10     5     6    1
    11     5    16    1
    12     6    10    1
    13     6    11    1
    14     6    17    1
    15     7    18    1
    16     7    19    1
    17     8    20    1
    18     8    21    1
    19     8    22    1
    20     9    23    1
    21     9    24    1
    22     9    25    1
    23    10    26    1
    24    10    27    1
    25    10    28    1
    26    11    29    1
    27    11    30    1
    28    11    31    1
    29    12    13    1
    30    13    14    1
    31    13    15    1
    32    13    32    1
    33    14    34    1
    34    14    35    1
    35    14    36    1
    36    15    37    1
    37    15    38    1
    38    15    39    1
