@<TRIPOS>MOLECULE
IMPHY016936
 40 40 0 0 0
SMALL
GASTEIGER

@<TRIPOS>ATOM
      1 O           6.4674    1.7300    0.0000 O.3     1  UNL1       -0.3875
      2 C           3.8704    1.6158    0.0000 C.3     1  UNL1       -0.0142
      3 C           4.8704    1.6158    0.0000 C.3     1  UNL1       -0.0144
      4 C           5.7116    1.0751    0.0000 C.3     1  UNL1        0.0768
      5 C           4.3704    2.4818    0.0000 C.3     1  UNL1       -0.0563
      6 C           3.3297    2.4570    0.0000 C.3     1  UNL1       -0.0563
      7 C           3.0291    1.0751    0.0000 C.2     1  UNL1       -0.0819
      8 C           6.1270    0.1655    0.0000 C.2     1  UNL1       -0.0482
      9 C           5.9847   -0.8243    0.0000 C.3     1  UNL1       -0.0261
     10 C           2.6137    0.1655    0.0000 C.2     1  UNL1       -0.0834
     11 C           5.3299   -1.5801    0.0000 C.3     1  UNL1       -0.0307
     12 C           2.7560   -0.8243    0.0000 C.3     1  UNL1       -0.0138
     13 C           3.4109   -1.5801    0.0000 C.2     1  UNL1       -0.0728
     14 C           4.3704   -1.8618    0.0000 C.2     1  UNL1       -0.0844
     15 C           7.1168    0.3078    0.0000 C.2     1  UNL1       -0.0970
     16 C           2.8702   -2.4213    0.0000 C.3     1  UNL1       -0.0435
     17 H           5.3577    1.9990    0.0000 H       1  UNL1        0.0301
     18 H           4.6957    1.0209    0.0000 H       1  UNL1        0.0301
     19 H           5.6674    1.6936    0.0000 H       1  UNL1        0.0640
     20 H           4.9073    2.1718    0.0000 H       1  UNL1        0.0238
     21 H           4.6804    3.0187    0.0000 H       1  UNL1        0.0238
     22 H           3.8334    2.7918    0.0000 H       1  UNL1        0.0238
     23 H           3.8513    2.7922    0.0000 H       1  UNL1        0.0238
     24 H           2.9945    2.9786    0.0000 H       1  UNL1        0.0238
     25 H           2.8081    2.1218    0.0000 H       1  UNL1        0.0238
     26 H           2.5605    1.4812    0.0000 H       1  UNL1        0.0574
     27 H           6.2947   -1.3612    0.0000 H       1  UNL1        0.0314
     28 H           5.4207   -0.5668    0.0000 H       1  UNL1        0.0314
     29 H           5.3004   -2.1994    0.0000 H       1  UNL1        0.0310
     30 H           4.9946   -1.0585    0.0000 H       1  UNL1        0.0310
     31 H           2.0000    0.2537    0.0000 H       1  UNL1        0.0572
     32 H           2.1472   -0.7070    0.0000 H       1  UNL1        0.0352
     33 H           3.3200   -0.5668    0.0000 H       1  UNL1        0.0352
     34 H           4.3704   -2.4818    0.0000 H       1  UNL1        0.0572
     35 H           6.3500    2.3388    0.0000 H       1  UNL1        0.2102
     36 H           7.5001   -0.1795    0.0000 H       1  UNL1        0.0535
     37 H           7.3473    0.8834    0.0000 H       1  UNL1        0.0535
     38 H           2.3486   -2.0861    0.0000 H       1  UNL1        0.0274
     39 H           2.5350   -2.9429    0.0000 H       1  UNL1        0.0274
     40 H           3.3918   -2.7565    0.0000 H       1  UNL1        0.0274
@<TRIPOS>BOND
     1     1     4    1
     2     1    35    1
     3     2     3    1
     4     2     5    1
     5     2     6    1
     6     2     7    1
     7     3     4    1
     8     3    17    1
     9     3    18    1
    10     4     8    1
    11     4    19    1
    12     5    20    1
    13     5    21    1
    14     5    22    1
    15     6    23    1
    16     6    24    1
    17     6    25    1
    18     7    10    2
    19     7    26    1
    20     8     9    1
    21     8    15    2
    22     9    11    1
    23     9    27    1
    24     9    28    1
    25    10    12    1
    26    10    31    1
    27    11    14    1
    28    11    29    1
    29    11    30    1
    30    12    13    1
    31    12    32    1
    32    12    33    1
    33    13    14    2
    34    13    16    1
    35    14    34    1
    36    15    36    1
    37    15    37    1
    38    16    38    1
    39    16    39    1
    40    16    40    1
