@<TRIPOS>MOLECULE
IMPHY007750
 45 47 0 0 0
SMALL
GASTEIGER

@<TRIPOS>ATOM
      1 O           6.3580   -2.2401    0.0000 O.2     1  UNL1       -0.4618
      2 O           9.0000   -1.6779    0.0000 O.3     1  UNL1       -0.4944
      3 O           2.8660   -0.2054    0.0000 O.3     1  UNL1       -0.4885
      4 O           8.9846    2.3221    0.0000 O.3     1  UNL1       -0.4914
      5 O           4.5981    0.7946    0.0000 O.3     1  UNL1       -0.5027
      6 O           6.3465    0.8292    0.0000 O.2     1  UNL1       -0.2863
      7 O          10.7205    1.3288    0.0000 O.3     1  UNL1       -0.4913
      8 O           2.8660   -2.2054    0.0000 O.3     1  UNL1       -0.5031
      9 C           7.2641   -0.6846    0.0000 C.ar    1  UNL1        0.0680
     10 C           5.4641   -0.7054    0.0000 C.ar    1  UNL1        0.1097
     11 C           8.1282   -0.1813    0.0000 C.ar    1  UNL1        0.0341
     12 C           6.3580   -0.1707    0.0000 C.ar    1  UNL1        0.2039
     13 C           5.4641   -1.7054    0.0000 C.ar    1  UNL1        0.1456
     14 C           8.9962   -0.6779    0.0000 C.ar    1  UNL1        0.1317
     15 C           4.5981   -0.2054    0.0000 C.ar    1  UNL1        0.1768
     16 C           8.1244    0.8187    0.0000 C.ar    1  UNL1       -0.0049
     17 C           7.2641   -1.7262    0.0000 C.ar    1  UNL1        0.1040
     18 C           4.5981   -2.2054    0.0000 C.ar    1  UNL1        0.0267
     19 C           3.7320   -0.7054    0.0000 C.ar    1  UNL1        0.2040
     20 C           8.9884    1.3221    0.0000 C.ar    1  UNL1        0.1623
     21 C           9.8602   -0.1746    0.0000 C.ar    1  UNL1        0.0260
     22 C           3.7320   -1.7054    0.0000 C.ar    1  UNL1        0.1657
     23 C           9.8564    0.8254    0.0000 C.ar    1  UNL1        0.1650
     24 C           9.8680   -2.1746    0.0000 C.3     1  UNL1        0.0788
     25 C           2.0000   -0.7054    0.0000 C.3     1  UNL1        0.0791
     26 C           9.8487    2.8254    0.0000 C.3     1  UNL1        0.0790
     27 C          11.5884    0.8321    0.0000 C.3     1  UNL1        0.0790
     28 H           7.5862    1.1267    0.0000 H       1  UNL1        0.0663
     29 H           7.7998   -2.0383    0.0000 H       1  UNL1        0.1037
     30 H           4.5981   -2.8254    0.0000 H       1  UNL1        0.0692
     31 H          10.3984   -0.4825    0.0000 H       1  UNL1        0.0692
     32 H           4.0611    1.1046    0.0000 H       1  UNL1        0.2923
     33 H           2.8660   -2.8254    0.0000 H       1  UNL1        0.2923
     34 H           9.5600   -2.7127    0.0000 H       1  UNL1        0.0660
     35 H          10.4061   -2.4825    0.0000 H       1  UNL1        0.0660
     36 H          10.1759   -1.6364    0.0000 H       1  UNL1        0.0660
     37 H           1.6900   -0.1685    0.0000 H       1  UNL1        0.0660
     38 H           1.4631   -1.0154    0.0000 H       1  UNL1        0.0660
     39 H           2.3100   -1.2423    0.0000 H       1  UNL1        0.0660
     40 H          10.1607    2.2897    0.0000 H       1  UNL1        0.0660
     41 H          10.3844    3.1375    0.0000 H       1  UNL1        0.0660
     42 H           9.5366    3.3611    0.0000 H       1  UNL1        0.0660
     43 H          11.2805    0.2940    0.0000 H       1  UNL1        0.0660
     44 H          12.1266    0.5242    0.0000 H       1  UNL1        0.0660
     45 H          11.8964    1.3702    0.0000 H       1  UNL1        0.0660
@<TRIPOS>BOND
     1     1    13   ar
     2     1    17   ar
     3     2    14    1
     4     2    24    1
     5     3    19    1
     6     3    25    1
     7     4    20    1
     8     4    26    1
     9     5    15    1
    10     5    32    1
    11     6    12    2
    12     7    23    1
    13     7    27    1
    14     8    22    1
    15     8    33    1
    16     9    11    1
    17     9    12   ar
    18     9    17   ar
    19    10    12   ar
    20    10    13   ar
    21    10    15   ar
    22    11    14   ar
    23    11    16   ar
    24    13    18   ar
    25    14    21   ar
    26    15    19   ar
    27    16    20   ar
    28    16    28    1
    29    17    29    1
    30    18    22   ar
    31    18    30    1
    32    19    22   ar
    33    20    23   ar
    34    21    23   ar
    35    21    31    1
    36    24    34    1
    37    24    35    1
    38    24    36    1
    39    25    37    1
    40    25    38    1
    41    25    39    1
    42    26    40    1
    43    26    41    1
    44    26    42    1
    45    27    43    1
    46    27    44    1
    47    27    45    1
