@<TRIPOS>MOLECULE
IMPHY011546
 17 17 0 0 0
SMALL
GASTEIGER

@<TRIPOS>ATOM
      1 O           5.1350    1.3450    0.0000 O.3     1  UNL1       -0.5028
      2 O           6.8671    0.3450    0.0000 O.3     1  UNL1       -0.5033
      3 O           2.5369   -0.1550    0.0000 O.3     1  UNL1       -0.4770
      4 O           3.4030    1.3450    0.0000 O.2     1  UNL1       -0.2450
      5 C           4.2690   -0.1550    0.0000 C.ar    1  UNL1        0.1037
      6 C           5.1350    0.3450    0.0000 C.ar    1  UNL1        0.1724
      7 C           6.0010   -0.1550    0.0000 C.ar    1  UNL1        0.1591
      8 C           4.2690   -1.1550    0.0000 C.ar    1  UNL1       -0.0440
      9 C           6.0010   -1.1550    0.0000 C.ar    1  UNL1       -0.0165
     10 C           5.1350   -1.6550    0.0000 C.ar    1  UNL1       -0.0573
     11 C           3.4030    0.3450    0.0000 C.2     1  UNL1        0.3405
     12 H           3.7320   -1.4650    0.0000 H       1  UNL1        0.0627
     13 H           6.5380   -1.4650    0.0000 H       1  UNL1        0.0655
     14 H           5.1350   -2.2750    0.0000 H       1  UNL1        0.0619
     15 H           5.6720    1.6550    0.0000 H       1  UNL1        0.2923
     16 H           7.4040    0.0350    0.0000 H       1  UNL1        0.2923
     17 H           2.0000    0.1550    0.0000 H       1  UNL1        0.2954
@<TRIPOS>BOND
     1     1     6    1
     2     1    15    1
     3     2     7    1
     4     2    16    1
     5     3    11    1
     6     3    17    1
     7     4    11    2
     8     5     6   ar
     9     5     8   ar
    10     5    11    1
    11     6     7   ar
    12     7     9   ar
    13     8    10   ar
    14     8    12    1
    15     9    10   ar
    16     9    13    1
    17    10    14    1
