@<TRIPOS>MOLECULE
IMPHY000655
 37 39 0 0 0
SMALL
GASTEIGER

@<TRIPOS>ATOM
      1 O           6.0290   -0.9397    0.0000 O.3     1  UNL1       -0.4549
      2 O           7.4317   -1.2938    0.0000 O.3     1  UNL1       -0.3514
      3 O           6.0174    2.1296    0.0000 O.2     1  UNL1       -0.2916
      4 O           4.2690    2.0950    0.0000 O.3     1  UNL1       -0.5056
      5 O           2.5369   -0.9050    0.0000 O.3     1  UNL1       -0.5056
      6 O           3.4030   -2.4050    0.0000 O.2     1  UNL1       -0.2955
      7 C           6.9350   -0.4258    0.0000 C.3     1  UNL1        0.2440
      8 C           6.9350    0.6158    0.0000 C.3     1  UNL1        0.0808
      9 C           5.1350    0.5950    0.0000 C.ar    1  UNL1        0.1018
     10 C           5.1350   -0.4050    0.0000 C.ar    1  UNL1        0.1522
     11 C           6.0290    1.1297    0.0000 C.2     1  UNL1        0.1768
     12 C           7.9350   -0.4297    0.0000 C.ar    1  UNL1        0.0236
     13 C           4.2690    1.0950    0.0000 C.ar    1  UNL1        0.1372
     14 C           4.2690   -0.9050    0.0000 C.ar    1  UNL1        0.0984
     15 C           3.4030    0.5950    0.0000 C.ar    1  UNL1        0.0339
     16 C           3.4030   -0.4050    0.0000 C.ar    1  UNL1        0.1370
     17 C           8.4317   -1.2976    0.0000 C.ar    1  UNL1       -0.0524
     18 C           8.4384    0.4344    0.0000 C.ar    1  UNL1       -0.0524
     19 C           2.5369    1.0950    0.0000 C.3     1  UNL1       -0.0327
     20 C           4.2690   -1.9050    0.0000 C.2     1  UNL1        0.1573
     21 C           9.4317   -1.3015    0.0000 C.ar    1  UNL1       -0.0613
     22 C           9.4383    0.4306    0.0000 C.ar    1  UNL1       -0.0613
     23 C           9.9350   -0.4374    0.0000 C.ar    1  UNL1       -0.0617
     24 H           7.5459    0.5097    0.0000 H       1  UNL1        0.0413
     25 H           7.1441    1.1995    0.0000 H       1  UNL1        0.0413
     26 H           7.1196   -1.8295    0.0000 H       1  UNL1        0.2142
     27 H           8.1196   -1.8334    0.0000 H       1  UNL1        0.0622
     28 H           8.1304    0.9725    0.0000 H       1  UNL1        0.0622
     29 H           2.8469    1.6319    0.0000 H       1  UNL1        0.0280
     30 H           2.0000    1.4050    0.0000 H       1  UNL1        0.0280
     31 H           2.2269    0.5581    0.0000 H       1  UNL1        0.0280
     32 H           4.8059   -2.2150    0.0000 H       1  UNL1        0.1084
     33 H           9.7396   -1.8396    0.0000 H       1  UNL1        0.0618
     34 H           9.7504    0.9663    0.0000 H       1  UNL1        0.0618
     35 H          10.5550   -0.4398    0.0000 H       1  UNL1        0.0618
     36 H           3.7320    2.4050    0.0000 H       1  UNL1        0.2922
     37 H           2.0000   -0.5950    0.0000 H       1  UNL1        0.2922
@<TRIPOS>BOND
     1     1     7    1
     2     1    10    1
     3     2     7    1
     4     2    26    1
     5     3    11    2
     6     4    13    1
     7     4    36    1
     8     5    16    1
     9     5    37    1
    10     6    20    2
    11     7     8    1
    12     7    12    1
    13     8    11    1
    14     8    24    1
    15     8    25    1
    16     9    10   ar
    17     9    11    1
    18     9    13   ar
    19    10    14   ar
    20    12    17   ar
    21    12    18   ar
    22    13    15   ar
    23    14    16   ar
    24    14    20    1
    25    15    16   ar
    26    15    19    1
    27    17    21   ar
    28    17    27    1
    29    18    22   ar
    30    18    28    1
    31    19    29    1
    32    19    30    1
    33    19    31    1
    34    20    32    1
    35    21    23   ar
    36    21    33    1
    37    22    23   ar
    38    22    34    1
    39    23    35    1
