@<TRIPOS>MOLECULE
IMPHY006166
 35 38 0 0 0
SMALL
GASTEIGER

@<TRIPOS>ATOM
      1 O           5.7940   -1.5718    0.0000 O.2     1  UNL1       -0.4536
      2 O           7.9380    0.4967    0.0000 O.2     1  UNL1       -0.4214
      3 O           4.9343    1.6861    0.0000 O.3     1  UNL1       -0.4943
      4 O           2.3045   -0.6675    0.0000 O.3     1  UNL1       -0.4949
      5 O           6.6509    1.6557    0.0000 O.2     1  UNL1       -0.2444
      6 O          10.5776   -1.8474    0.0000 O.3     1  UNL1       -0.5066
      7 C           6.2908   -0.0385    0.0000 C.ar    1  UNL1        0.1163
      8 C           5.2967   -0.0411    0.0000 C.ar    1  UNL1        0.0766
      9 C           6.5998   -0.9896    0.0000 C.ar    1  UNL1        0.1539
     10 C           4.9903   -0.9868    0.0000 C.ar    1  UNL1        0.1435
     11 C           7.5779   -1.1975    0.0000 C.ar    1  UNL1        0.0607
     12 C           4.6151    0.7384    0.0000 C.ar    1  UNL1        0.1351
     13 C           8.2470   -0.4543    0.0000 C.ar    1  UNL1        0.1461
     14 C           6.9599    0.7046    0.0000 C.ar    1  UNL1        0.3489
     15 C           3.9811   -1.2185    0.0000 C.ar    1  UNL1        0.0232
     16 C           3.6008    0.5301    0.0000 C.ar    1  UNL1        0.0226
     17 C           3.2817   -0.4550    0.0000 C.ar    1  UNL1        0.1271
     18 C           7.8845   -2.1930    0.0000 C.ar    1  UNL1       -0.0441
     19 C           9.2691   -0.6552    0.0000 C.ar    1  UNL1        0.0230
     20 C           8.9017   -2.4174    0.0000 C.ar    1  UNL1       -0.0193
     21 C           9.5986   -1.6433    0.0000 C.ar    1  UNL1        0.1204
     22 C           4.2731    2.4364    0.0000 C.3     1  UNL1        0.0788
     23 C           2.0000   -1.6200    0.0000 C.3     1  UNL1        0.0788
     24 H           3.7969   -1.8105    0.0000 H       1  UNL1        0.0691
     25 H           3.1873    0.9920    0.0000 H       1  UNL1        0.0691
     26 H           7.4643   -2.6489    0.0000 H       1  UNL1        0.0627
     27 H           9.6786   -0.1897    0.0000 H       1  UNL1        0.0691
     28 H           9.0910   -3.0078    0.0000 H       1  UNL1        0.0654
     29 H           4.7383    2.8463    0.0000 H       1  UNL1        0.0660
     30 H           3.8632    2.9015    0.0000 H       1  UNL1        0.0660
     31 H           3.8080    2.0264    0.0000 H       1  UNL1        0.0660
     32 H           1.4095   -1.4312    0.0000 H       1  UNL1        0.0660
     33 H           1.8112   -2.2106    0.0000 H       1  UNL1        0.0660
     34 H           2.5906   -1.8088    0.0000 H       1  UNL1        0.0660
     35 H          10.7714   -2.4364    0.0000 H       1  UNL1        0.2921
@<TRIPOS>BOND
     1     1     9   ar
     2     1    10   ar
     3     2    13   ar
     4     2    14   ar
     5     3    12    1
     6     3    22    1
     7     4    17    1
     8     4    23    1
     9     5    14    2
    10     6    21    1
    11     6    35    1
    12     7     8   ar
    13     7     9   ar
    14     7    14   ar
    15     8    10   ar
    16     8    12   ar
    17     9    11   ar
    18    10    15   ar
    19    11    13   ar
    20    11    18   ar
    21    12    16   ar
    22    13    19   ar
    23    15    17   ar
    24    15    24    1
    25    16    17   ar
    26    16    25    1
    27    18    20   ar
    28    18    26    1
    29    19    21   ar
    30    19    27    1
    31    20    21   ar
    32    20    28    1
    33    22    29    1
    34    22    30    1
    35    22    31    1
    36    23    32    1
    37    23    33    1
    38    23    34    1
