@<TRIPOS>MOLECULE
IMPHY017432
 23 23 0 0 0
SMALL
GASTEIGER

@<TRIPOS>ATOM
      1 N           2.8660   -1.2500    0.0000 N.ar    1  UNL1       -0.2535
      2 N           4.5981   -0.2500    0.0000 N.ar    1  UNL1       -0.2520
      3 C           2.8660   -0.2500    0.0000 C.ar    1  UNL1        0.0638
      4 C           3.7320    0.2500    0.0000 C.ar    1  UNL1        0.0845
      5 C           3.7320   -1.7500    0.0000 C.ar    1  UNL1        0.0566
      6 C           2.0000    0.2500    0.0000 C.3     1  UNL1       -0.0203
      7 C           4.5981   -1.2500    0.0000 C.ar    1  UNL1        0.0493
      8 C           3.7320    1.2500    0.0000 C.2     1  UNL1       -0.0388
      9 C           3.7320   -2.7500    0.0000 C.3     1  UNL1       -0.0209
     10 C           4.5981    1.7500    0.0000 C.2     1  UNL1       -0.0850
     11 C           4.5981    2.7500    0.0000 C.3     1  UNL1       -0.0465
     12 H           2.3100    0.7869    0.0000 H       1  UNL1        0.0293
     13 H           1.4631    0.5600    0.0000 H       1  UNL1        0.0293
     14 H           1.6900   -0.2869    0.0000 H       1  UNL1        0.0293
     15 H           5.1350   -1.5600    0.0000 H       1  UNL1        0.0848
     16 H           3.1951    1.5600    0.0000 H       1  UNL1        0.0636
     17 H           3.1120   -2.7500    0.0000 H       1  UNL1        0.0293
     18 H           3.7320   -3.3700    0.0000 H       1  UNL1        0.0293
     19 H           4.3520   -2.7500    0.0000 H       1  UNL1        0.0293
     20 H           5.1350    1.4400    0.0000 H       1  UNL1        0.0570
     21 H           5.2181    2.7500    0.0000 H       1  UNL1        0.0272
     22 H           4.5981    3.3700    0.0000 H       1  UNL1        0.0272
     23 H           3.9781    2.7500    0.0000 H       1  UNL1        0.0272
@<TRIPOS>BOND
     1     1     3   ar
     2     1     5   ar
     3     2     4   ar
     4     2     7   ar
     5     3     4   ar
     6     3     6    1
     7     4     8    1
     8     5     7   ar
     9     5     9    1
    10     6    12    1
    11     6    13    1
    12     6    14    1
    13     7    15    1
    14     8    10    2
    15     8    16    1
    16     9    17    1
    17     9    18    1
    18     9    19    1
    19    10    11    1
    20    10    20    1
    21    11    21    1
    22    11    22    1
    23    11    23    1
