@<TRIPOS>MOLECULE
IMPHY013305
 49 53 0 0 0
SMALL
GASTEIGER

@<TRIPOS>ATOM
      1 O           5.1350   -0.7802    0.0000 O.3     1  UNL1       -0.3313
      2 O           6.8671   -0.7802    0.0000 O.3     1  UNL1       -0.4587
      3 O           5.1350   -3.7802    0.0000 O.3     1  UNL1       -0.3864
      4 O           3.4030   -2.7802    0.0000 O.3     1  UNL1       -0.3865
      5 O           6.8671   -2.7802    0.0000 O.3     1  UNL1       -0.3829
      6 O           2.5369   -1.2802    0.0000 O.3     1  UNL1       -0.3924
      7 N           8.7031    0.4212    0.0000 N.ar    1  UNL1       -0.3500
      8 N           9.1398    2.9412    0.0000 N.ar    1  UNL1       -0.2446
      9 C           5.1350   -2.7802    0.0000 C.3     1  UNL1        0.1152
     10 C           4.2690   -2.2802    0.0000 C.3     1  UNL1        0.1120
     11 C           6.0010   -2.2802    0.0000 C.3     1  UNL1        0.1454
     12 C           4.2690   -1.2802    0.0000 C.3     1  UNL1        0.1140
     13 C           6.0010   -1.2802    0.0000 C.3     1  UNL1        0.2309
     14 C           3.4030   -0.7802    0.0000 C.3     1  UNL1        0.0731
     15 C           6.8671    0.2198    0.0000 C.ar    1  UNL1        0.1478
     16 C           7.7618    0.7409    0.0000 C.ar    1  UNL1        0.0914
     17 C           7.7733    1.7350    0.0000 C.ar    1  UNL1        0.0293
     18 C           8.7217    2.0328    0.0000 C.ar    1  UNL1        0.0970
     19 C           9.2994    1.2166    0.0000 C.ar    1  UNL1        0.0667
     20 C           5.9723    0.7409    0.0000 C.ar    1  UNL1       -0.0177
     21 C           6.8908    2.2767    0.0000 C.ar    1  UNL1       -0.0503
     22 C          10.2951    1.3087    0.0000 C.ar    1  UNL1       -0.0271
     23 C           5.9843    1.7763    0.0000 C.ar    1  UNL1       -0.0575
     24 C          10.7132    2.2172    0.0000 C.ar    1  UNL1        0.0024
     25 C          10.1355    3.0334    0.0000 C.ar    1  UNL1        0.0718
     26 C          11.7517    2.2971    0.0000 C.ar    1  UNL1       -0.0525
     27 C          10.5563    3.9862    0.0000 C.ar    1  UNL1       -0.0357
     28 C          12.1945    3.2400    0.0000 C.ar    1  UNL1       -0.0611
     29 C          11.5927    4.0902    0.0000 C.ar    1  UNL1       -0.0597
     30 H           4.5981   -3.0902    0.0000 H       1  UNL1        0.0648
     31 H           4.2690   -2.9002    0.0000 H       1  UNL1        0.0647
     32 H           6.0010   -2.9002    0.0000 H       1  UNL1        0.0683
     33 H           4.2690   -0.6602    0.0000 H       1  UNL1        0.0647
     34 H           6.0010   -0.6602    0.0000 H       1  UNL1        0.1084
     35 H           3.8015   -0.3053    0.0000 H       1  UNL1        0.0584
     36 H           3.0044   -0.3053    0.0000 H       1  UNL1        0.0584
     37 H           4.5981   -4.0902    0.0000 H       1  UNL1        0.2100
     38 H           3.4030   -3.4002    0.0000 H       1  UNL1        0.2100
     39 H           6.8671   -3.4002    0.0000 H       1  UNL1        0.2102
     40 H           8.8863   -0.1711    0.0000 H       1  UNL1        0.1661
     41 H           5.4330    0.4351    0.0000 H       1  UNL1        0.0655
     42 H           6.9052    2.8965    0.0000 H       1  UNL1        0.0625
     43 H           2.0000   -0.9702    0.0000 H       1  UNL1        0.2095
     44 H          10.6533    0.8027    0.0000 H       1  UNL1        0.0645
     45 H           5.4522    2.0946    0.0000 H       1  UNL1        0.0619
     46 H          12.1040    1.7870    0.0000 H       1  UNL1        0.0624
     47 H          10.1923    4.4882    0.0000 H       1  UNL1        0.0639
     48 H          12.8121    3.2948    0.0000 H       1  UNL1        0.0618
     49 H          11.8498    4.6545    0.0000 H       1  UNL1        0.0618
@<TRIPOS>BOND
     1     1    12    1
     2     1    13    1
     3    13     2    1
     4     2    15    1
     5     9     3    1
     6     3    37    1
     7    10     4    1
     8     4    38    1
     9    11     5    1
    10     5    39    1
    11     6    14    1
    12     6    43    1
    13     7    16   ar
    14     7    19   ar
    15     7    40    1
    16     8    18   ar
    17     8    25   ar
    18     9    10    1
    19     9    11    1
    20     9    30    1
    21    10    12    1
    22    10    31    1
    23    11    13    1
    24    11    32    1
    25    12    14    1
    26    12    33    1
    27    13    34    1
    28    14    35    1
    29    14    36    1
    30    15    16   ar
    31    15    20   ar
    32    16    17   ar
    33    17    18   ar
    34    17    21   ar
    35    18    19   ar
    36    19    22   ar
    37    20    23   ar
    38    20    41    1
    39    21    23   ar
    40    21    42    1
    41    22    24   ar
    42    22    44    1
    43    23    45    1
    44    24    25   ar
    45    24    26   ar
    46    25    27   ar
    47    26    28   ar
    48    26    46    1
    49    27    29   ar
    50    27    47    1
    51    28    29   ar
    52    28    48    1
    53    29    49    1
