@<TRIPOS>MOLECULE
IMPHY011288
 85 89 0 0 0
SMALL
GASTEIGER

@<TRIPOS>ATOM
      1 O           3.7320   -2.5933    0.0000 O.3     1  UNL1       -0.4610
      2 O          12.6571    0.4932    0.0000 O.2     1  UNL1       -0.3004
      3 O           2.8718   -1.0900    0.0000 O.2     1  UNL1       -0.2512
      4 C           8.2591   -1.0410    0.0000 C.3     1  UNL1       -0.0194
      5 C           7.3931   -0.5410    0.0000 C.3     1  UNL1       -0.0257
      6 C           6.4831   -1.0478    0.0000 C.3     1  UNL1       -0.0249
      7 C           9.1251   -0.5410    0.0000 C.3     1  UNL1       -0.0051
      8 C           6.4750   -2.0894    0.0000 C.3     1  UNL1       -0.0268
      9 C           8.2752   -2.0825    0.0000 C.3     1  UNL1       -0.0463
     10 C           7.3771   -2.6102    0.0000 C.3     1  UNL1       -0.0486
     11 C           9.1251    0.4590    0.0000 C.2     1  UNL1       -0.0630
     12 C           5.5396   -2.6391    0.0000 C.3     1  UNL1        0.0055
     13 C          10.0191    0.9937    0.0000 C.3     1  UNL1       -0.0068
     14 C           7.3931    0.4590    0.0000 C.3     1  UNL1       -0.0306
     15 C           5.5562   -0.4837    0.0000 C.3     1  UNL1       -0.0437
     16 C          10.0191   -1.0756    0.0000 C.3     1  UNL1       -0.0425
     17 C          10.9251    0.4799    0.0000 C.3     1  UNL1        0.0325
     18 C           8.9019   -1.8070    0.0000 C.3     1  UNL1       -0.0585
     19 C          10.9251   -0.5618    0.0000 C.3     1  UNL1       -0.0396
     20 C           4.6000   -2.0966    0.0000 C.3     1  UNL1        0.1084
     21 C           6.4908   -0.0478    0.0000 C.3     1  UNL1       -0.0590
     22 C           8.2591    0.9590    0.0000 C.2     1  UNL1       -0.0836
     23 C           4.6084   -1.0117    0.0000 C.3     1  UNL1       -0.0146
     24 C           9.4672   -1.4806    0.0000 C.3     1  UNL1       -0.0553
     25 C           9.9940    2.0784    0.0000 C.3     1  UNL1       -0.0404
     26 C          11.8689    1.0151    0.0000 C.3     1  UNL1       -0.0399
     27 C          10.9251    2.6353    0.0000 C.3     1  UNL1       -0.0343
     28 C           5.0430   -3.5071    0.0000 C.3     1  UNL1       -0.0562
     29 C           6.0430   -3.5032    0.0000 C.3     1  UNL1       -0.0562
     30 C          11.8689    2.1001    0.0000 C.3     1  UNL1       -0.0470
     31 C          11.7950   -0.0135    0.0000 C.2     1  UNL1        0.1270
     32 C          11.4151    3.5071    0.0000 C.3     1  UNL1       -0.0598
     33 C          10.4152    3.4955    0.0000 C.3     1  UNL1       -0.0598
     34 C           2.8680   -2.0900    0.0000 C.2     1  UNL1        0.3042
     35 C           2.0000   -2.5866    0.0000 C.3     1  UNL1        0.0332
     36 H           8.1292   -0.1160    0.0000 H       1  UNL1        0.0315
     37 H           6.4783   -2.9394    0.0000 H       1  UNL1        0.0312
     38 H           8.4932   -2.6629    0.0000 H       1  UNL1        0.0271
     39 H           8.8843   -1.9670    0.0000 H       1  UNL1        0.0271
     40 H           6.9798   -3.0862    0.0000 H       1  UNL1        0.0268
     41 H           7.7781   -3.0831    0.0000 H       1  UNL1        0.0268
     42 H          10.7485    1.4300    0.0000 H       1  UNL1        0.0355
     43 H           7.1810    1.0416    0.0000 H       1  UNL1        0.0310
     44 H           6.7825    0.3514    0.0000 H       1  UNL1        0.0310
     45 H           5.9644   -0.0171    0.0000 H       1  UNL1        0.0272
     46 H           5.1663   -0.0017    0.0000 H       1  UNL1        0.0272
     47 H           9.6145   -1.5454    0.0000 H       1  UNL1        0.0274
     48 H          10.4127   -1.5546    0.0000 H       1  UNL1        0.0274
     49 H           8.4269   -2.2055    0.0000 H       1  UNL1        0.0235
     50 H           9.3004   -2.2820    0.0000 H       1  UNL1        0.0235
     51 H           9.3768   -1.4085    0.0000 H       1  UNL1        0.0235
     52 H          11.1342   -1.1455    0.0000 H       1  UNL1        0.0275
     53 H          11.5360   -0.4557    0.0000 H       1  UNL1        0.0275
     54 H           4.5988   -2.7166    0.0000 H       1  UNL1        0.0739
     55 H           7.1108   -0.0526    0.0000 H       1  UNL1        0.0235
     56 H           6.4956    0.5721    0.0000 H       1  UNL1        0.0235
     57 H           5.8708   -0.0431    0.0000 H       1  UNL1        0.0235
     58 H           8.2591    1.5790    0.0000 H       1  UNL1        0.0572
     59 H           4.4038   -0.4264    0.0000 H       1  UNL1        0.0301
     60 H           3.9967   -1.1131    0.0000 H       1  UNL1        0.0301
     61 H           8.8846   -1.6927    0.0000 H       1  UNL1        0.0238
     62 H           9.6794   -2.0632    0.0000 H       1  UNL1        0.0238
     63 H          10.0498   -1.2685    0.0000 H       1  UNL1        0.0238
     64 H           9.7715    2.6571    0.0000 H       1  UNL1        0.0276
     65 H           9.3857    1.9582    0.0000 H       1  UNL1        0.0276
     66 H          12.0780    0.4314    0.0000 H       1  UNL1        0.0275
     67 H          12.4798    1.1212    0.0000 H       1  UNL1        0.0275
     68 H           4.5048   -3.1992    0.0000 H       1  UNL1        0.0236
     69 H           4.7350   -4.0452    0.0000 H       1  UNL1        0.0236
     70 H           5.5811   -3.8150    0.0000 H       1  UNL1        0.0236
     71 H           5.5072   -3.8153    0.0000 H       1  UNL1        0.0236
     72 H           6.3550   -4.0390    0.0000 H       1  UNL1        0.0236
     73 H           6.5787   -3.1912    0.0000 H       1  UNL1        0.0236
     74 H          12.4798    1.9940    0.0000 H       1  UNL1        0.0271
     75 H          12.0780    2.6838    0.0000 H       1  UNL1        0.0271
     76 H          11.7998   -0.6334    0.0000 H       1  UNL1        0.1032
     77 H          11.9556    3.2033    0.0000 H       1  UNL1        0.0235
     78 H          11.7189    4.0476    0.0000 H       1  UNL1        0.0235
     79 H          10.8746    3.8108    0.0000 H       1  UNL1        0.0235
     80 H          10.9485    3.8117    0.0000 H       1  UNL1        0.0235
     81 H          10.0990    4.0288    0.0000 H       1  UNL1        0.0235
     82 H           9.8818    3.1793    0.0000 H       1  UNL1        0.0235
     83 H           1.6921   -2.0485    0.0000 H       1  UNL1        0.0342
     84 H           1.4619   -2.8945    0.0000 H       1  UNL1        0.0342
     85 H           2.3079   -3.1247    0.0000 H       1  UNL1        0.0342
@<TRIPOS>BOND
     1    20     1    1
     2     1    34    1
     3     2    31    2
     4     3    34    2
     5     4     5    1
     6     4     7    1
     7     4     9    1
     8     4    18    1
     9     5     6    1
    10     5    14    1
    11     5    36    1
    12     6     8    1
    13     6    15    1
    14     6    21    1
    15     7    11    1
    16     7    16    1
    17     7    24    1
    18     8    10    1
    19     8    12    1
    20     8    37    1
    21     9    10    1
    22     9    38    1
    23     9    39    1
    24    10    40    1
    25    10    41    1
    26    11    13    1
    27    11    22    2
    28    12    20    1
    29    12    28    1
    30    12    29    1
    31    13    17    1
    32    13    25    1
    33    13    42    1
    34    14    22    1
    35    14    43    1
    36    14    44    1
    37    15    23    1
    38    15    45    1
    39    15    46    1
    40    16    19    1
    41    16    47    1
    42    16    48    1
    43    17    19    1
    44    17    26    1
    45    17    31    1
    46    18    49    1
    47    18    50    1
    48    18    51    1
    49    19    52    1
    50    19    53    1
    51    20    23    1
    52    20    54    1
    53    21    55    1
    54    21    56    1
    55    21    57    1
    56    22    58    1
    57    23    59    1
    58    23    60    1
    59    24    61    1
    60    24    62    1
    61    24    63    1
    62    25    27    1
    63    25    64    1
    64    25    65    1
    65    26    30    1
    66    26    66    1
    67    26    67    1
    68    27    30    1
    69    27    32    1
    70    27    33    1
    71    28    68    1
    72    28    69    1
    73    28    70    1
    74    29    71    1
    75    29    72    1
    76    29    73    1
    77    30    74    1
    78    30    75    1
    79    31    76    1
    80    32    77    1
    81    32    78    1
    82    32    79    1
    83    33    80    1
    84    33    81    1
    85    33    82    1
    86    34    35    1
    87    35    83    1
    88    35    84    1
    89    35    85    1
