@<TRIPOS>MOLECULE
IMPHY001720
 110 117 0 0 0
SMALL
GASTEIGER

@<TRIPOS>ATOM
      1 O          11.1759    2.6626    0.0000 O.3     1  UNL1       -0.3400
      2 O          12.1837    1.9197    0.0000 O.3     1  UNL1       -0.3362
      3 O          11.8683   -0.1912    0.0000 O.3     1  UNL1       -0.3859
      4 O           6.3222   -4.2004    0.0000 O.3     1  UNL1       -0.3440
      5 O          14.3561    3.3397    0.0000 O.3     1  UNL1       -0.4561
      6 O           4.8008   -5.0283    0.0000 O.3     1  UNL1       -0.3451
      7 O           5.3661   -2.4437    0.0000 O.3     1  UNL1       -0.4537
      8 O           3.3668   -2.3933    0.0000 O.3     1  UNL1       -0.3853
      9 O           2.3234   -4.0996    0.0000 O.3     1  UNL1       -0.3868
     10 O          13.9706    5.0283    0.0000 O.2     1  UNL1       -0.2511
     11 O           3.8884   -1.5401    0.0000 O.2     1  UNL1       -0.2512
     12 C           8.6033   -0.5430    0.0000 C.3     1  UNL1       -0.0193
     13 C           8.0301   -1.4566    0.0000 C.3     1  UNL1       -0.0193
     14 C           9.6386   -0.5651    0.0000 C.3     1  UNL1       -0.0264
     15 C           7.5250   -0.5031    0.0000 C.3     1  UNL1       -0.0401
     16 C          10.1685    0.3245    0.0000 C.3     1  UNL1        0.0081
     17 C           8.5420   -2.4060    0.0000 C.3     1  UNL1       -0.0273
     18 C           9.6966    1.1994    0.0000 C.3     1  UNL1       -0.0158
     19 C           8.1119    0.3684    0.0000 C.3     1  UNL1       -0.0460
     20 C           6.9077   -1.4067    0.0000 C.3     1  UNL1       -0.0442
     21 C          10.1723   -1.5024    0.0000 C.3     1  UNL1       -0.0488
     22 C           8.6622    1.2455    0.0000 C.3     1  UNL1       -0.0461
     23 C          10.3817    1.9197    0.0000 C.3     1  UNL1        0.0244
     24 C           9.6203   -2.4290    0.0000 C.3     1  UNL1       -0.0488
     25 C          11.1467    0.5011    0.0000 C.3     1  UNL1        0.1153
     26 C           7.9670   -3.3712    0.0000 C.3     1  UNL1       -0.0052
     27 C          11.2827    1.4858    0.0000 C.3     1  UNL1        0.2011
     28 C           6.3106   -2.3584    0.0000 C.3     1  UNL1       -0.0255
     29 C          10.6431   -0.5557    0.0000 C.3     1  UNL1       -0.0562
     30 C           6.8438   -3.3472    0.0000 C.3     1  UNL1        0.0672
     31 C           9.2220    2.0796    0.0000 C.3     1  UNL1       -0.0585
     32 C          10.1592    2.8947    0.0000 C.3     1  UNL1       -0.0331
     33 C          11.7827    3.6765    0.0000 C.3     1  UNL1        0.0922
     34 C           7.9496   -4.3710    0.0000 C.3     1  UNL1       -0.0572
     35 C           8.8242   -3.8863    0.0000 C.3     1  UNL1       -0.0572
     36 C          10.7827    3.6765    0.0000 C.3     1  UNL1       -0.0209
     37 C          12.4062    2.8947    0.0000 C.3     1  UNL1        0.1272
     38 C           9.1843    3.1172    0.0000 C.3     1  UNL1       -0.0619
     39 C          13.3811    3.1172    0.0000 C.3     1  UNL1        0.1364
     40 C           5.3225   -4.1752    0.0000 C.3     1  UNL1        0.1992
     41 C          13.6037    2.1423    0.0000 C.3     1  UNL1       -0.0225
     42 C          13.1586    4.0921    0.0000 C.3     1  UNL1       -0.0225
     43 C           4.8445   -3.2968    0.0000 C.3     1  UNL1        0.1816
     44 C           3.8448   -3.2716    0.0000 C.3     1  UNL1        0.1248
     45 C           3.8011   -5.0031    0.0000 C.3     1  UNL1        0.0793
     46 C           3.3231   -4.1248    0.0000 C.3     1  UNL1        0.1080
     47 C          14.6508    4.2953    0.0000 C.2     1  UNL1        0.3045
     48 C          15.6257    4.5178    0.0000 C.3     1  UNL1        0.0333
     49 C           4.8881   -1.5653    0.0000 C.2     1  UNL1        0.3044
     50 C           5.4098   -0.7122    0.0000 C.3     1  UNL1        0.0332
     51 H          10.4885   -0.5734    0.0000 H       1  UNL1        0.0313
     52 H           7.4399    0.1110    0.0000 H       1  UNL1        0.0276
     53 H           6.9350   -0.6936    0.0000 H       1  UNL1        0.0276
     54 H           8.9540   -3.1494    0.0000 H       1  UNL1        0.0312
     55 H           7.6508    0.7829    0.0000 H       1  UNL1        0.0271
     56 H           7.6246   -0.0149    0.0000 H       1  UNL1        0.0271
     57 H           7.0408   -0.8012    0.0000 H       1  UNL1        0.0272
     58 H           6.3339   -1.1719    0.0000 H       1  UNL1        0.0272
     59 H          10.6428   -1.9061    0.0000 H       1  UNL1        0.0268
     60 H          10.6506   -1.1079    0.0000 H       1  UNL1        0.0268
     61 H           8.7953    1.8510    0.0000 H       1  UNL1        0.0271
     62 H           8.0884    1.4803    0.0000 H       1  UNL1        0.0271
     63 H           9.6159    2.2885    0.0000 H       1  UNL1        0.0362
     64 H           9.5012   -3.0375    0.0000 H       1  UNL1        0.0268
     65 H          10.1994   -2.6505    0.0000 H       1  UNL1        0.0268
     66 H          11.7324    0.7046    0.0000 H       1  UNL1        0.0653
     67 H           5.8495   -1.9438    0.0000 H       1  UNL1        0.0290
     68 H           5.8233   -2.7417    0.0000 H       1  UNL1        0.0290
     69 H          10.0974   -0.8500    0.0000 H       1  UNL1        0.0236
     70 H          10.9374   -1.1014    0.0000 H       1  UNL1        0.0236
     71 H          11.1888   -0.2615    0.0000 H       1  UNL1        0.0236
     72 H           6.2240   -3.3304    0.0000 H       1  UNL1        0.0602
     73 H           9.9544    3.4799    0.0000 H       1  UNL1        0.0303
     74 H           9.7677    2.3739    0.0000 H       1  UNL1        0.0235
     75 H           8.9277    2.6253    0.0000 H       1  UNL1        0.0235
     76 H           8.6763    1.7854    0.0000 H       1  UNL1        0.0235
     77 H          11.9719    4.5052    0.0000 H       1  UNL1        0.0624
     78 H           7.3296   -4.3602    0.0000 H       1  UNL1        0.0236
     79 H           7.9387   -4.9910    0.0000 H       1  UNL1        0.0236
     80 H           8.5695   -4.3819    0.0000 H       1  UNL1        0.0236
     81 H           8.5048   -4.4177    0.0000 H       1  UNL1        0.0236
     82 H           9.3556   -4.2056    0.0000 H       1  UNL1        0.0236
     83 H           9.1435   -3.3548    0.0000 H       1  UNL1        0.0236
     84 H          10.9207    4.2809    0.0000 H       1  UNL1        0.0294
     85 H          10.2241    3.9455    0.0000 H       1  UNL1        0.0294
     86 H          13.0072    2.2936    0.0000 H       1  UNL1        0.0663
     87 H          12.4637   -0.0184    0.0000 H       1  UNL1        0.2100
     88 H           9.3223    3.7216    0.0000 H       1  UNL1        0.0233
     89 H           8.5798    3.2551    0.0000 H       1  UNL1        0.0233
     90 H           9.0463    2.5127    0.0000 H       1  UNL1        0.0233
     91 H           5.6188   -4.7198    0.0000 H       1  UNL1        0.0949
     92 H          13.7631    4.2301    0.0000 H       1  UNL1        0.0269
     93 H          13.0206    4.6966    0.0000 H       1  UNL1        0.0269
     94 H          12.5542    3.9541    0.0000 H       1  UNL1        0.0269
     95 H          12.9992    2.0043    0.0000 H       1  UNL1        0.0269
     96 H          13.7416    1.5378    0.0000 H       1  UNL1        0.0269
     97 H          14.2081    2.2802    0.0000 H       1  UNL1        0.0269
     98 H           5.4643   -3.3124    0.0000 H       1  UNL1        0.0813
     99 H           3.2250   -3.2560    0.0000 H       1  UNL1        0.0659
    100 H           3.2134   -5.2004    0.0000 H       1  UNL1        0.0587
    101 H           3.8934   -5.6162    0.0000 H       1  UNL1        0.0587
    102 H           2.9997   -4.6537    0.0000 H       1  UNL1        0.0643
    103 H           2.7470   -2.3776    0.0000 H       1  UNL1        0.2101
    104 H          15.7637    3.9133    0.0000 H       1  UNL1        0.0342
    105 H          16.2302    4.6558    0.0000 H       1  UNL1        0.0342
    106 H          15.4878    5.1222    0.0000 H       1  UNL1        0.0342
    107 H           2.0000   -4.6285    0.0000 H       1  UNL1        0.2100
    108 H           5.9387   -1.0356    0.0000 H       1  UNL1        0.0342
    109 H           5.7332   -0.1832    0.0000 H       1  UNL1        0.0342
    110 H           4.8808   -0.3887    0.0000 H       1  UNL1        0.0342
@<TRIPOS>BOND
     1    27     1    1
     2     1    33    1
     3     2    27    1
     4     2    37    1
     5    25     3    1
     6     3    87    1
     7    30     4    1
     8    40     4    1
     9     5    39    1
    10     5    47    1
    11     6    40    1
    12     6    45    1
    13    43     7    1
    14     7    49    1
    15    44     8    1
    16     8   103    1
    17    46     9    1
    18     9   107    1
    19    10    47    2
    20    11    49    2
    21    12    13    1
    22    12    14    1
    23    12    15    1
    24    12    19    1
    25    13    15    1
    26    13    17    1
    27    13    20    1
    28    14    16    1
    29    14    21    1
    30    14    51    1
    31    15    52    1
    32    15    53    1
    33    16    18    1
    34    16    25    1
    35    16    29    1
    36    17    24    1
    37    17    26    1
    38    17    54    1
    39    18    22    1
    40    18    23    1
    41    18    31    1
    42    19    22    1
    43    19    55    1
    44    19    56    1
    45    20    28    1
    46    20    57    1
    47    20    58    1
    48    21    24    1
    49    21    59    1
    50    21    60    1
    51    22    61    1
    52    22    62    1
    53    23    27    1
    54    23    32    1
    55    23    63    1
    56    24    64    1
    57    24    65    1
    58    25    27    1
    59    25    66    1
    60    26    30    1
    61    26    34    1
    62    26    35    1
    63    28    30    1
    64    28    67    1
    65    28    68    1
    66    29    69    1
    67    29    70    1
    68    29    71    1
    69    30    72    1
    70    31    74    1
    71    31    75    1
    72    31    76    1
    73    32    36    1
    74    32    38    1
    75    32    73    1
    76    33    36    1
    77    33    37    1
    78    33    77    1
    79    34    78    1
    80    34    79    1
    81    34    80    1
    82    35    81    1
    83    35    82    1
    84    35    83    1
    85    36    84    1
    86    36    85    1
    87    37    39    1
    88    37    86    1
    89    38    88    1
    90    38    89    1
    91    38    90    1
    92    39    41    1
    93    39    42    1
    94    40    43    1
    95    40    91    1
    96    41    95    1
    97    41    96    1
    98    41    97    1
    99    42    92    1
   100    42    93    1
   101    42    94    1
   102    43    44    1
   103    43    98    1
   104    44    46    1
   105    44    99    1
   106    45    46    1
   107    45   100    1
   108    45   101    1
   109    46   102    1
   110    47    48    1
   111    48   104    1
   112    48   105    1
   113    48   106    1
   114    49    50    1
   115    50   108    1
   116    50   109    1
   117    50   110    1
