@<TRIPOS>MOLECULE
IMPHY008644
 110 110 0 0 0
SMALL
GASTEIGER

@<TRIPOS>ATOM
      1 O           7.7331   -4.7500    0.0000 O.3     1  UNL1       -0.4619
      2 O           6.8671   -3.2500    0.0000 O.2     1  UNL1       -0.2509
      3 O           7.7331   -6.7500    0.0000 O.3     1  UNL1       -0.3861
      4 O           6.0010   -7.7500    0.0000 O.3     1  UNL1       -0.3731
      5 O           4.2690  -13.7500    0.0000 O.3     1  UNL1       -0.4915
      6 O           2.5369  -12.7500    0.0000 O.3     1  UNL1       -0.5033
      7 C          12.9292    5.2500    0.0000 C.3     1  UNL1       -0.0531
      8 C          13.7953    5.7500    0.0000 C.3     1  UNL1       -0.0531
      9 C          12.9292    4.2500    0.0000 C.3     1  UNL1       -0.0531
     10 C          13.7953    6.7500    0.0000 C.3     1  UNL1       -0.0531
     11 C          12.0632    3.7500    0.0000 C.3     1  UNL1       -0.0531
     12 C          14.6613    7.2500    0.0000 C.3     1  UNL1       -0.0531
     13 C          12.0632    2.7500    0.0000 C.3     1  UNL1       -0.0531
     14 C          14.6613    8.2500    0.0000 C.3     1  UNL1       -0.0531
     15 C          11.1972    2.2500    0.0000 C.3     1  UNL1       -0.0531
     16 C          15.5273    8.7500    0.0000 C.3     1  UNL1       -0.0531
     17 C          11.1972    1.2500    0.0000 C.3     1  UNL1       -0.0531
     18 C          15.5273    9.7500    0.0000 C.3     1  UNL1       -0.0531
     19 C          10.3312    0.7500    0.0000 C.3     1  UNL1       -0.0531
     20 C          16.3933   10.2500    0.0000 C.3     1  UNL1       -0.0531
     21 C          10.3312   -0.2500    0.0000 C.3     1  UNL1       -0.0531
     22 C          16.3933   11.2500    0.0000 C.3     1  UNL1       -0.0531
     23 C           9.4651   -0.7500    0.0000 C.3     1  UNL1       -0.0530
     24 C          17.2594   11.7500    0.0000 C.3     1  UNL1       -0.0531
     25 C           9.4651   -1.7500    0.0000 C.3     1  UNL1       -0.0526
     26 C          17.2594   12.7500    0.0000 C.3     1  UNL1       -0.0533
     27 C           8.5991   -2.2500    0.0000 C.3     1  UNL1       -0.0430
     28 C          18.1254   13.2500    0.0000 C.3     1  UNL1       -0.0559
     29 C           8.5991   -3.2500    0.0000 C.3     1  UNL1        0.0449
     30 C          18.1254   14.2500    0.0000 C.3     1  UNL1       -0.0653
     31 C           7.7331   -3.7500    0.0000 C.2     1  UNL1        0.3072
     32 C           6.8671   -5.2500    0.0000 C.3     1  UNL1        0.1204
     33 C           6.8671   -6.2500    0.0000 C.3     1  UNL1        0.1124
     34 C           6.0010   -6.7500    0.0000 C.3     1  UNL1        0.0772
     35 C           5.1350   -8.2500    0.0000 C.3     1  UNL1        0.0663
     36 C           5.1350   -9.2500    0.0000 C.2     1  UNL1       -0.0581
     37 C           4.2690   -9.7500    0.0000 C.2     1  UNL1       -0.0563
     38 C           4.2690  -10.7500    0.0000 C.ar    1  UNL1       -0.0216
     39 C           3.4030  -11.2500    0.0000 C.ar    1  UNL1       -0.0094
     40 C           5.1350  -11.2500    0.0000 C.ar    1  UNL1       -0.0509
     41 C           3.4030  -12.2500    0.0000 C.ar    1  UNL1        0.1590
     42 C           5.1350  -12.2500    0.0000 C.ar    1  UNL1       -0.0158
     43 C           4.2690  -12.7500    0.0000 C.ar    1  UNL1        0.1613
     44 C           5.1350  -14.2500    0.0000 C.3     1  UNL1        0.0790
     45 H          12.7172    5.8326    0.0000 H       1  UNL1        0.0265
     46 H          12.3187    5.1423    0.0000 H       1  UNL1        0.0265
     47 H          14.0073    5.1674    0.0000 H       1  UNL1        0.0265
     48 H          14.4058    5.8577    0.0000 H       1  UNL1        0.0265
     49 H          13.1413    3.6674    0.0000 H       1  UNL1        0.0265
     50 H          13.5398    4.3577    0.0000 H       1  UNL1        0.0265
     51 H          13.5832    7.3326    0.0000 H       1  UNL1        0.0265
     52 H          13.1847    6.6423    0.0000 H       1  UNL1        0.0265
     53 H          11.8512    4.3326    0.0000 H       1  UNL1        0.0265
     54 H          11.4526    3.6423    0.0000 H       1  UNL1        0.0265
     55 H          14.8733    6.6674    0.0000 H       1  UNL1        0.0265
     56 H          15.2719    7.3577    0.0000 H       1  UNL1        0.0265
     57 H          12.2753    2.1674    0.0000 H       1  UNL1        0.0265
     58 H          12.6738    2.8577    0.0000 H       1  UNL1        0.0265
     59 H          14.4492    8.8326    0.0000 H       1  UNL1        0.0265
     60 H          14.0507    8.1423    0.0000 H       1  UNL1        0.0265
     61 H          10.9851    2.8326    0.0000 H       1  UNL1        0.0265
     62 H          10.5866    2.1423    0.0000 H       1  UNL1        0.0265
     63 H          15.7394    8.1674    0.0000 H       1  UNL1        0.0265
     64 H          16.1379    8.8577    0.0000 H       1  UNL1        0.0265
     65 H          11.4092    0.6674    0.0000 H       1  UNL1        0.0265
     66 H          11.8078    1.3577    0.0000 H       1  UNL1        0.0265
     67 H          15.3153   10.3326    0.0000 H       1  UNL1        0.0265
     68 H          14.9167    9.6423    0.0000 H       1  UNL1        0.0265
     69 H          10.1191    1.3326    0.0000 H       1  UNL1        0.0265
     70 H           9.7206    0.6423    0.0000 H       1  UNL1        0.0265
     71 H          16.6054    9.6674    0.0000 H       1  UNL1        0.0265
     72 H          17.0039   10.3577    0.0000 H       1  UNL1        0.0265
     73 H          10.5432   -0.8326    0.0000 H       1  UNL1        0.0265
     74 H          10.9417   -0.1423    0.0000 H       1  UNL1        0.0265
     75 H          16.1813   11.8326    0.0000 H       1  UNL1        0.0265
     76 H          15.7828   11.1423    0.0000 H       1  UNL1        0.0265
     77 H           9.2531   -0.1674    0.0000 H       1  UNL1        0.0265
     78 H           8.8546   -0.8577    0.0000 H       1  UNL1        0.0265
     79 H          17.4714   11.1674    0.0000 H       1  UNL1        0.0265
     80 H          17.8699   11.8577    0.0000 H       1  UNL1        0.0265
     81 H           9.6772   -2.3326    0.0000 H       1  UNL1        0.0265
     82 H          10.0757   -1.6423    0.0000 H       1  UNL1        0.0265
     83 H          17.0473   13.3326    0.0000 H       1  UNL1        0.0265
     84 H          16.6488   12.6423    0.0000 H       1  UNL1        0.0265
     85 H           8.3871   -1.6674    0.0000 H       1  UNL1        0.0270
     86 H           7.9885   -2.3577    0.0000 H       1  UNL1        0.0270
     87 H          18.3374   12.6674    0.0000 H       1  UNL1        0.0263
     88 H          18.7360   13.3577    0.0000 H       1  UNL1        0.0263
     89 H           8.8112   -3.8326    0.0000 H       1  UNL1        0.0377
     90 H           9.2097   -3.1423    0.0000 H       1  UNL1        0.0377
     91 H          18.7454   14.2500    0.0000 H       1  UNL1        0.0230
     92 H          18.1254   14.8700    0.0000 H       1  UNL1        0.0230
     93 H          17.5054   14.2500    0.0000 H       1  UNL1        0.0230
     94 H           6.6550   -4.6674    0.0000 H       1  UNL1        0.0724
     95 H           6.2565   -5.3577    0.0000 H       1  UNL1        0.0724
     96 H           7.4040   -5.9400    0.0000 H       1  UNL1        0.0650
     97 H           5.7890   -6.1674    0.0000 H       1  UNL1        0.0587
     98 H           5.3905   -6.8577    0.0000 H       1  UNL1        0.0587
     99 H           8.2700   -6.4400    0.0000 H       1  UNL1        0.2100
    100 H           4.9230   -7.6674    0.0000 H       1  UNL1        0.0604
    101 H           4.5244   -8.3577    0.0000 H       1  UNL1        0.0604
    102 H           5.6720   -9.5600    0.0000 H       1  UNL1        0.0595
    103 H           3.7320   -9.4400    0.0000 H       1  UNL1        0.0621
    104 H           2.8660  -10.9400    0.0000 H       1  UNL1        0.0661
    105 H           5.6720  -10.9400    0.0000 H       1  UNL1        0.0625
    106 H           5.6720  -12.5600    0.0000 H       1  UNL1        0.0655
    107 H           2.0000  -12.4400    0.0000 H       1  UNL1        0.2923
    108 H           4.8250  -14.7869    0.0000 H       1  UNL1        0.0660
    109 H           5.6720  -14.5600    0.0000 H       1  UNL1        0.0660
    110 H           5.4450  -13.7131    0.0000 H       1  UNL1        0.0660
@<TRIPOS>BOND
     1     1    31    1
     2     1    32    1
     3     2    31    2
     4     3    33    1
     5     3    99    1
     6     4    34    1
     7     4    35    1
     8     5    43    1
     9     5    44    1
    10     6    41    1
    11     6   107    1
    12     7     8    1
    13     7     9    1
    14     7    45    1
    15     7    46    1
    16     8    10    1
    17     8    47    1
    18     8    48    1
    19     9    11    1
    20     9    49    1
    21     9    50    1
    22    10    12    1
    23    10    51    1
    24    10    52    1
    25    11    13    1
    26    11    53    1
    27    11    54    1
    28    12    14    1
    29    12    55    1
    30    12    56    1
    31    13    15    1
    32    13    57    1
    33    13    58    1
    34    14    16    1
    35    14    59    1
    36    14    60    1
    37    15    17    1
    38    15    61    1
    39    15    62    1
    40    16    18    1
    41    16    63    1
    42    16    64    1
    43    17    19    1
    44    17    65    1
    45    17    66    1
    46    18    20    1
    47    18    67    1
    48    18    68    1
    49    19    21    1
    50    19    69    1
    51    19    70    1
    52    20    22    1
    53    20    71    1
    54    20    72    1
    55    21    23    1
    56    21    73    1
    57    21    74    1
    58    22    24    1
    59    22    75    1
    60    22    76    1
    61    23    25    1
    62    23    77    1
    63    23    78    1
    64    24    26    1
    65    24    79    1
    66    24    80    1
    67    25    27    1
    68    25    81    1
    69    25    82    1
    70    26    28    1
    71    26    83    1
    72    26    84    1
    73    27    29    1
    74    27    85    1
    75    27    86    1
    76    28    30    1
    77    28    87    1
    78    28    88    1
    79    29    31    1
    80    29    89    1
    81    29    90    1
    82    30    91    1
    83    30    92    1
    84    30    93    1
    85    32    33    1
    86    32    94    1
    87    32    95    1
    88    33    34    1
    89    33    96    1
    90    34    97    1
    91    34    98    1
    92    35    36    1
    93    35   100    1
    94    35   101    1
    95    36    37    2
    96    36   102    1
    97    37    38    1
    98    37   103    1
    99    38    39   ar
   100    38    40   ar
   101    39    41   ar
   102    39   104    1
   103    40    42   ar
   104    40   105    1
   105    41    43   ar
   106    42    43   ar
   107    42   106    1
   108    44   108    1
   109    44   109    1
   110    44   110    1
