@<TRIPOS>MOLECULE
IMPHY005162
 59 61 0 0 0
SMALL
GASTEIGER

@<TRIPOS>ATOM
      1 O           6.8671   -0.5223    0.0000 O.3     1  UNL1       -0.3398
      2 O           5.1350   -0.5223    0.0000 O.3     1  UNL1       -0.3405
      3 O           6.8671   -2.5223    0.0000 O.3     1  UNL1       -0.3841
      4 O           5.7765    2.8145    0.0000 O.2     1  UNL1       -0.2914
      5 O           5.1350   -3.5223    0.0000 O.3     1  UNL1       -0.3864
      6 O           3.4030   -2.5223    0.0000 O.3     1  UNL1       -0.3865
      7 O           2.5369   -1.0223    0.0000 O.3     1  UNL1       -0.3924
      8 O          11.3217    3.8323    0.0000 O.3     1  UNL1       -0.3947
      9 C           6.0623    1.0613    0.0000 C.3     1  UNL1        0.0583
     10 C           6.8671    0.4777    0.0000 C.3     1  UNL1        0.0995
     11 C           7.6718    1.0613    0.0000 C.ar    1  UNL1       -0.0069
     12 C           7.3611    2.0118    0.0000 C.ar    1  UNL1        0.0269
     13 C           6.3671    2.0075    0.0000 C.2     1  UNL1        0.1721
     14 C           6.0010   -1.0223    0.0000 C.3     1  UNL1        0.1886
     15 C           6.0010   -2.0223    0.0000 C.3     1  UNL1        0.1341
     16 C           5.1350   -2.5223    0.0000 C.3     1  UNL1        0.1141
     17 C           5.1107    1.3687    0.0000 C.3     1  UNL1       -0.0500
     18 C           5.4760    0.2513    0.0000 C.3     1  UNL1       -0.0500
     19 C           4.2690   -2.0223    0.0000 C.3     1  UNL1        0.1119
     20 C           4.2690   -1.0223    0.0000 C.3     1  UNL1        0.1130
     21 C           8.0290    2.7561    0.0000 C.ar    1  UNL1       -0.0361
     22 C           8.6503    0.8551    0.0000 C.ar    1  UNL1       -0.0522
     23 C           9.0075    2.5499    0.0000 C.ar    1  UNL1       -0.0387
     24 C           9.3181    1.5994    0.0000 C.ar    1  UNL1       -0.0466
     25 C           3.4030   -0.5223    0.0000 C.3     1  UNL1        0.0730
     26 C           7.7183    3.7066    0.0000 C.3     1  UNL1       -0.0388
     27 C           9.6753    3.2942    0.0000 C.3     1  UNL1       -0.0039
     28 C          10.2967    1.3932    0.0000 C.3     1  UNL1       -0.0394
     29 C          10.6538    3.0880    0.0000 C.3     1  UNL1        0.0482
     30 H           7.4194    0.1960    0.0000 H       1  UNL1        0.0657
     31 H           6.0010   -0.4023    0.0000 H       1  UNL1        0.0938
     32 H           6.0010   -2.6423    0.0000 H       1  UNL1        0.0671
     33 H           4.5981   -2.8323    0.0000 H       1  UNL1        0.0648
     34 H           5.3013    1.9587    0.0000 H       1  UNL1        0.0240
     35 H           4.5207    1.5592    0.0000 H       1  UNL1        0.0240
     36 H           4.9202    0.7787    0.0000 H       1  UNL1        0.0240
     37 H           4.9737    0.6148    0.0000 H       1  UNL1        0.0240
     38 H           5.1124   -0.2509    0.0000 H       1  UNL1        0.0240
     39 H           5.9782   -0.1123    0.0000 H       1  UNL1        0.0240
     40 H           3.7320   -1.7123    0.0000 H       1  UNL1        0.0647
     41 H           4.2690   -0.4023    0.0000 H       1  UNL1        0.0647
     42 H           8.8429    0.2658    0.0000 H       1  UNL1        0.0624
     43 H           3.8015   -0.0474    0.0000 H       1  UNL1        0.0584
     44 H           3.0044   -0.0474    0.0000 H       1  UNL1        0.0584
     45 H           8.3076    3.8993    0.0000 H       1  UNL1        0.0278
     46 H           7.5257    4.2960    0.0000 H       1  UNL1        0.0278
     47 H           7.1290    3.5140    0.0000 H       1  UNL1        0.0278
     48 H           9.9066    3.8695    0.0000 H       1  UNL1        0.0335
     49 H           9.1490    3.6219    0.0000 H       1  UNL1        0.0335
     50 H           6.8671   -3.1423    0.0000 H       1  UNL1        0.2101
     51 H           4.5981   -3.8323    0.0000 H       1  UNL1        0.2100
     52 H           3.4030   -3.1423    0.0000 H       1  UNL1        0.2100
     53 H          10.1688    0.7865    0.0000 H       1  UNL1        0.0278
     54 H          10.9033    1.2653    0.0000 H       1  UNL1        0.0278
     55 H          10.4245    1.9998    0.0000 H       1  UNL1        0.0278
     56 H          10.4226    2.5127    0.0000 H       1  UNL1        0.0560
     57 H          11.1802    2.7604    0.0000 H       1  UNL1        0.0560
     58 H           2.0000   -0.7123    0.0000 H       1  UNL1        0.2095
     59 H          11.9283    3.7044    0.0000 H       1  UNL1        0.2094
@<TRIPOS>BOND
     1    10     1    1
     2    14     1    1
     3     2    14    1
     4     2    20    1
     5    15     3    1
     6     3    50    1
     7     4    13    2
     8    16     5    1
     9     5    51    1
    10    19     6    1
    11     6    52    1
    12     7    25    1
    13     7    58    1
    14     8    29    1
    15     8    59    1
    16     9    10    1
    17     9    13    1
    18     9    17    1
    19     9    18    1
    20    10    11    1
    21    10    30    1
    22    11    12   ar
    23    11    22   ar
    24    12    13    1
    25    12    21   ar
    26    14    15    1
    27    14    31    1
    28    15    16    1
    29    15    32    1
    30    16    19    1
    31    16    33    1
    32    17    34    1
    33    17    35    1
    34    17    36    1
    35    18    37    1
    36    18    38    1
    37    18    39    1
    38    19    20    1
    39    19    40    1
    40    20    25    1
    41    20    41    1
    42    21    23   ar
    43    21    26    1
    44    22    24   ar
    45    22    42    1
    46    23    24   ar
    47    23    27    1
    48    24    28    1
    49    25    43    1
    50    25    44    1
    51    26    45    1
    52    26    46    1
    53    26    47    1
    54    27    29    1
    55    27    48    1
    56    27    49    1
    57    28    53    1
    58    28    54    1
    59    28    55    1
    60    29    56    1
    61    29    57    1
