@<TRIPOS>MOLECULE
IMPHY001070
 55 54 0 0 0
SMALL
GASTEIGER

@<TRIPOS>ATOM
      1 O          10.3312    1.3450    0.0000 O.3     1  UNL1       -0.3878
      2 O          12.9292   -1.1550    0.0000 O.3     1  UNL1       -0.3852
      3 O          13.7953    1.3450    0.0000 O.3     1  UNL1       -0.3886
      4 O           2.5369   -0.1550    0.0000 O.3     1  UNL1       -0.4806
      5 O           3.4030    1.3450    0.0000 O.2     1  UNL1       -0.2510
      6 C           7.7331   -0.1550    0.0000 C.3     1  UNL1       -0.0530
      7 C           8.5991    0.3450    0.0000 C.3     1  UNL1       -0.0504
      8 C           6.8671    0.3450    0.0000 C.3     1  UNL1       -0.0530
      9 C           9.4651   -0.1550    0.0000 C.3     1  UNL1       -0.0232
     10 C           6.0010   -0.1550    0.0000 C.3     1  UNL1       -0.0526
     11 C          10.3312    0.3450    0.0000 C.3     1  UNL1        0.0734
     12 C           5.1350    0.3450    0.0000 C.3     1  UNL1       -0.0430
     13 C          11.1972   -0.1550    0.0000 C.2     1  UNL1       -0.0573
     14 C          12.9292   -0.1550    0.0000 C.3     1  UNL1        0.0995
     15 C          13.7953    0.3450    0.0000 C.3     1  UNL1        0.0880
     16 C           4.2690   -0.1550    0.0000 C.3     1  UNL1        0.0448
     17 C          12.0632    0.3450    0.0000 C.2     1  UNL1       -0.0550
     18 C          14.6613   -0.1550    0.0000 C.3     1  UNL1       -0.0059
     19 C          15.5273    0.3450    0.0000 C.2     1  UNL1       -0.0854
     20 C           3.4030    0.3450    0.0000 C.2     1  UNL1        0.3047
     21 C          16.3933   -0.1550    0.0000 C.2     1  UNL1       -0.0881
     22 C          16.3933   -1.1550    0.0000 C.3     1  UNL1       -0.0376
     23 C          17.2594   -1.6550    0.0000 C.3     1  UNL1       -0.0618
     24 H           7.3346   -0.6299    0.0000 H       1  UNL1        0.0265
     25 H           8.1316   -0.6299    0.0000 H       1  UNL1        0.0265
     26 H           8.9976    0.8199    0.0000 H       1  UNL1        0.0266
     27 H           8.2006    0.8199    0.0000 H       1  UNL1        0.0266
     28 H           7.2656    0.8199    0.0000 H       1  UNL1        0.0265
     29 H           6.4685    0.8199    0.0000 H       1  UNL1        0.0265
     30 H           9.0666   -0.6299    0.0000 H       1  UNL1        0.0293
     31 H           9.8637   -0.6299    0.0000 H       1  UNL1        0.0293
     32 H           5.6025   -0.6299    0.0000 H       1  UNL1        0.0265
     33 H           6.3996   -0.6299    0.0000 H       1  UNL1        0.0265
     34 H          10.8681    0.6550    0.0000 H       1  UNL1        0.0637
     35 H           5.5335    0.8199    0.0000 H       1  UNL1        0.0270
     36 H           4.7365    0.8199    0.0000 H       1  UNL1        0.0270
     37 H          11.1972   -0.7750    0.0000 H       1  UNL1        0.0595
     38 H          12.3923   -0.4650    0.0000 H       1  UNL1        0.0664
     39 H          14.3322    0.6550    0.0000 H       1  UNL1        0.0625
     40 H           3.8705   -0.6299    0.0000 H       1  UNL1        0.0377
     41 H           4.6675   -0.6299    0.0000 H       1  UNL1        0.0377
     42 H          12.0632    0.9650    0.0000 H       1  UNL1        0.0596
     43 H          14.2628   -0.6299    0.0000 H       1  UNL1        0.0333
     44 H          15.0598   -0.6299    0.0000 H       1  UNL1        0.0333
     45 H           9.7942    1.6550    0.0000 H       1  UNL1        0.2102
     46 H          15.5273    0.9650    0.0000 H       1  UNL1        0.0570
     47 H          12.3923   -1.4650    0.0000 H       1  UNL1        0.2103
     48 H          14.3322    1.6550    0.0000 H       1  UNL1        0.2099
     49 H          16.9303    0.1550    0.0000 H       1  UNL1        0.0569
     50 H          15.7828   -1.0473    0.0000 H       1  UNL1        0.0305
     51 H          16.1813   -1.7376    0.0000 H       1  UNL1        0.0305
     52 H           2.0000    0.1550    0.0000 H       1  UNL1        0.2951
     53 H          16.9494   -2.1919    0.0000 H       1  UNL1        0.0233
     54 H          17.7963   -1.9650    0.0000 H       1  UNL1        0.0233
     55 H          17.5694   -1.1181    0.0000 H       1  UNL1        0.0233
@<TRIPOS>BOND
     1     1    11    1
     2     1    45    1
     3     2    14    1
     4     2    47    1
     5     3    15    1
     6     3    48    1
     7     4    20    1
     8     4    52    1
     9     5    20    2
    10     6     7    1
    11     6     8    1
    12     6    24    1
    13     6    25    1
    14     7     9    1
    15     7    26    1
    16     7    27    1
    17     8    10    1
    18     8    28    1
    19     8    29    1
    20     9    11    1
    21     9    30    1
    22     9    31    1
    23    10    12    1
    24    10    32    1
    25    10    33    1
    26    11    13    1
    27    11    34    1
    28    12    16    1
    29    12    35    1
    30    12    36    1
    31    13    17    2
    32    13    37    1
    33    14    15    1
    34    14    17    1
    35    14    38    1
    36    15    18    1
    37    15    39    1
    38    16    20    1
    39    16    40    1
    40    16    41    1
    41    17    42    1
    42    18    19    1
    43    18    43    1
    44    18    44    1
    45    19    21    2
    46    19    46    1
    47    21    22    1
    48    21    49    1
    49    22    23    1
    50    22    50    1
    51    22    51    1
    52    23    53    1
    53    23    54    1
    54    23    55    1
