@<TRIPOS>MOLECULE
IMPHY010430
 67 72 0 0 0
SMALL
GASTEIGER

@<TRIPOS>ATOM
      1 O           3.6174   -0.7026    0.0000 O.3     1  UNL1       -0.3877
      2 O           5.1349   -1.8714    0.0000 O.3     1  UNL1       -0.3910
      3 O           6.9576    1.8904    0.0000 O.3     1  UNL1       -0.3912
      4 O           3.2407    1.4645    0.0000 O.3     1  UNL1       -0.3910
      5 O           2.8399    2.3483    0.0000 O.3     1  UNL1       -0.3793
      6 O           7.8236   -2.3448    0.0000 O.3     1  UNL1       -0.3824
      7 N           8.1529    0.0613    0.0000 N.3     1  UNL1       -0.2980
      8 C           6.2062    0.4566    0.0000 C.3     1  UNL1        0.0217
      9 C           6.2062   -0.4110    0.0000 C.3     1  UNL1        0.0040
     10 C           5.5280    0.9975    0.0000 C.3     1  UNL1       -0.0230
     11 C           7.2082    0.3505    0.0000 C.3     1  UNL1        0.0268
     12 C           4.6821   -0.7589    0.0000 C.3     1  UNL1        0.0308
     13 C           4.6821    0.8044    0.0000 C.3     1  UNL1        0.0182
     14 C           4.3057    0.0228    0.0000 C.3     1  UNL1        0.0805
     15 C           5.5280   -0.9519    0.0000 C.3     1  UNL1        0.0662
     16 C           6.9576   -0.8448    0.0000 C.3     1  UNL1        0.0127
     17 C           6.9576    0.8904    0.0000 C.3     1  UNL1        0.0629
     18 C           5.6057    1.8616    0.0000 C.3     1  UNL1       -0.0416
     19 C           4.8080    2.2026    0.0000 C.3     1  UNL1        0.0120
     20 C           4.2371    1.5492    0.0000 C.3     1  UNL1        0.0661
     21 C           3.6608    0.2927    0.0000 C.3     1  UNL1        0.0035
     22 C           8.1529   -0.6906    0.0000 C.3     1  UNL1        0.0073
     23 C           7.7089   -0.4110    0.0000 C.3     1  UNL1       -0.0414
     24 C           3.6608    1.7772    0.0000 C.3     1  UNL1        0.0661
     25 C           7.7089    0.4566    0.0000 C.3     1  UNL1       -0.0256
     26 C           6.9576   -1.8448    0.0000 C.3     1  UNL1        0.0544
     27 C           8.9569    0.6560    0.0000 C.3     1  UNL1       -0.0036
     28 C           9.8739    0.2571    0.0000 C.3     1  UNL1       -0.0523
     29 C           2.9241    3.3448    0.0000 C.3     1  UNL1        0.0368
     30 C           7.8236   -3.3448    0.0000 C.3     1  UNL1        0.0365
     31 H           6.2698   -1.2586    0.0000 H       1  UNL1        0.0339
     32 H           6.3096    1.3316    0.0000 H       1  UNL1        0.0312
     33 H           7.6527    1.0750    0.0000 H       1  UNL1        0.0473
     34 H           4.1522   -1.4234    0.0000 H       1  UNL1        0.0369
     35 H           3.8330    0.7663    0.0000 H       1  UNL1        0.0357
     36 H           5.7284   -1.5386    0.0000 H       1  UNL1        0.0600
     37 H           6.4207    1.2004    0.0000 H       1  UNL1        0.0599
     38 H           5.7885    2.4540    0.0000 H       1  UNL1        0.0272
     39 H           6.2140    1.7418    0.0000 H       1  UNL1        0.0272
     40 H           4.8287    3.0523    0.0000 H       1  UNL1        0.0351
     41 H           3.9570    2.1023    0.0000 H       1  UNL1        0.0600
     42 H           3.4989   -0.3058    0.0000 H       1  UNL1        0.0318
     43 H           3.0462    0.3744    0.0000 H       1  UNL1        0.0318
     44 H           8.7724   -0.6640    0.0000 H       1  UNL1        0.0433
     45 H           8.2059   -1.3083    0.0000 H       1  UNL1        0.0433
     46 H           8.3195   -0.3033    0.0000 H       1  UNL1        0.0273
     47 H           7.9210   -0.9936    0.0000 H       1  UNL1        0.0273
     48 H           3.7390    2.3923    0.0000 H       1  UNL1        0.0600
     49 H           7.9210    1.0392    0.0000 H       1  UNL1        0.0290
     50 H           8.3195    0.3489    0.0000 H       1  UNL1        0.0290
     51 H           6.7455   -2.4274    0.0000 H       1  UNL1        0.0566
     52 H           6.3470   -1.7371    0.0000 H       1  UNL1        0.0566
     53 H           3.0145   -0.5579    0.0000 H       1  UNL1        0.2102
     54 H           8.5072    1.0829    0.0000 H       1  UNL1        0.0424
     55 H           9.2992    1.1730    0.0000 H       1  UNL1        0.0424
     56 H           5.5068   -2.3675    0.0000 H       1  UNL1        0.2098
     57 H           7.4945    2.2004    0.0000 H       1  UNL1        0.2098
     58 H           2.9773    0.9033    0.0000 H       1  UNL1        0.2098
     59 H          10.1212    0.8256    0.0000 H       1  UNL1        0.0242
     60 H          10.4424    0.0098    0.0000 H       1  UNL1        0.0242
     61 H           9.6266   -0.3114    0.0000 H       1  UNL1        0.0242
     62 H           2.3063    3.3970    0.0000 H       1  UNL1        0.0524
     63 H           2.9763    3.9626    0.0000 H       1  UNL1        0.0524
     64 H           3.5419    3.2926    0.0000 H       1  UNL1        0.0524
     65 H           8.4436   -3.3448    0.0000 H       1  UNL1        0.0523
     66 H           7.8236   -3.9648    0.0000 H       1  UNL1        0.0523
     67 H           7.2036   -3.3448    0.0000 H       1  UNL1        0.0523
@<TRIPOS>BOND
     1    14     1    1
     2     1    53    1
     3    15     2    1
     4     2    56    1
     5    17     3    1
     6     3    57    1
     7    20     4    1
     8     4    58    1
     9    24     5    1
    10     5    29    1
    11     6    26    1
    12     6    30    1
    13     7    11    1
    14     7    22    1
    15     7    27    1
    16     8     9    1
    17     8    10    1
    18     8    11    1
    19     8    17    1
    20     9    15    1
    21     9    16    1
    22     9    31    1
    23    10    13    1
    24    10    18    1
    25    10    32    1
    26    11    12    1
    27    11    33    1
    28    12    14    1
    29    12    15    1
    30    12    34    1
    31    13    14    1
    32    13    20    1
    33    13    35    1
    34    14    21    1
    35    15    36    1
    36    16    22    1
    37    16    23    1
    38    16    26    1
    39    17    25    1
    40    17    37    1
    41    18    19    1
    42    18    38    1
    43    18    39    1
    44    19    20    1
    45    19    24    1
    46    19    40    1
    47    20    41    1
    48    21    24    1
    49    21    42    1
    50    21    43    1
    51    22    44    1
    52    22    45    1
    53    23    25    1
    54    23    46    1
    55    23    47    1
    56    24    48    1
    57    25    49    1
    58    25    50    1
    59    26    51    1
    60    26    52    1
    61    27    28    1
    62    27    54    1
    63    27    55    1
    64    28    59    1
    65    28    60    1
    66    28    61    1
    67    29    62    1
    68    29    63    1
    69    29    64    1
    70    30    65    1
    71    30    66    1
    72    30    67    1
