@<TRIPOS>MOLECULE
IMPHY010044
 32 34 0 0 0
SMALL
GASTEIGER

@<TRIPOS>ATOM
      1 O           8.1962   -1.1875    0.0000 O.3     1  UNL1       -0.4941
      2 O           6.4144    1.8713    0.0000 O.3     1  UNL1       -0.5051
      3 O           4.6660    1.8367    0.0000 O.2     1  UNL1       -0.2865
      4 O           4.6660   -2.1633    0.0000 O.2     1  UNL1       -0.2866
      5 O           9.0641    0.3642    0.0000 O.3     1  UNL1       -0.4770
      6 O           8.1923    1.8608    0.0000 O.2     1  UNL1       -0.2449
      7 C           5.5321    0.3367    0.0000 C.ar    1  UNL1        0.0755
      8 C           5.5321   -0.6633    0.0000 C.ar    1  UNL1        0.0401
      9 C           3.8000    0.3367    0.0000 C.ar    1  UNL1        0.0332
     10 C           3.8000   -0.6633    0.0000 C.ar    1  UNL1        0.0331
     11 C           4.6660    0.8367    0.0000 C.2     1  UNL1        0.1980
     12 C           4.6660   -1.1633    0.0000 C.2     1  UNL1        0.1947
     13 C           6.4260    0.8713    0.0000 C.ar    1  UNL1        0.1459
     14 C           6.4260   -1.1980    0.0000 C.ar    1  UNL1       -0.0074
     15 C           7.3321    0.3575    0.0000 C.ar    1  UNL1        0.1422
     16 C           7.3321   -0.6841    0.0000 C.ar    1  UNL1        0.1383
     17 C           2.9061    0.8713    0.0000 C.ar    1  UNL1       -0.0502
     18 C           2.9061   -1.1980    0.0000 C.ar    1  UNL1       -0.0502
     19 C           2.0000    0.3575    0.0000 C.ar    1  UNL1       -0.0610
     20 C           2.0000   -0.6841    0.0000 C.ar    1  UNL1       -0.0610
     21 C           8.1962    0.8608    0.0000 C.2     1  UNL1        0.3440
     22 C           8.1923   -2.1875    0.0000 C.3     1  UNL1        0.0788
     23 H           6.4188   -1.8179    0.0000 H       1  UNL1        0.0662
     24 H           2.9132    1.4913    0.0000 H       1  UNL1        0.0625
     25 H           2.9132   -1.8179    0.0000 H       1  UNL1        0.0625
     26 H           1.4643    0.6696    0.0000 H       1  UNL1        0.0618
     27 H           1.4643   -0.9962    0.0000 H       1  UNL1        0.0618
     28 H           6.9478    2.1875    0.0000 H       1  UNL1        0.2922
     29 H           7.5723   -2.1851    0.0000 H       1  UNL1        0.0660
     30 H           8.1899   -2.8075    0.0000 H       1  UNL1        0.0660
     31 H           8.8123   -2.1898    0.0000 H       1  UNL1        0.0660
     32 H           9.5998    0.6762    0.0000 H       1  UNL1        0.2954
@<TRIPOS>BOND
     1     1    16    1
     2     1    22    1
     3     2    13    1
     4     2    28    1
     5     3    11    2
     6     4    12    2
     7     5    21    1
     8     5    32    1
     9     6    21    2
    10     7     8   ar
    11     7    11    1
    12     7    13   ar
    13     8    12    1
    14     8    14   ar
    15     9    10   ar
    16     9    11    1
    17     9    17   ar
    18    10    12    1
    19    10    18   ar
    20    13    15   ar
    21    14    16   ar
    22    14    23    1
    23    15    16   ar
    24    15    21    1
    25    17    19   ar
    26    17    24    1
    27    18    20   ar
    28    18    25    1
    29    19    20   ar
    30    19    26    1
    31    20    27    1
    32    22    29    1
    33    22    30    1
    34    22    31    1
