@<TRIPOS>MOLECULE
IMPHY014073
 86 89 0 0 0
SMALL
GASTEIGER

@<TRIPOS>ATOM
      1 O           5.7268   -2.9499    0.0000 O.3     1  UNL1       -0.4599
      2 O           6.8342    1.1265    0.0000 O.3     1  UNL1       -0.4567
      3 O           4.9665    1.1265    0.0000 O.3     1  UNL1       -0.4496
      4 O           8.6860    0.5069    0.0000 O.3     1  UNL1       -0.4607
      5 O           5.0990   -3.5287    0.0000 O.3     1  UNL1       -0.3881
      6 O           2.4217   -1.6067    0.0000 O.3     1  UNL1       -0.3875
      7 O           9.2820   -2.6351    0.0000 O.3     1  UNL1       -0.3874
      8 O           7.0535   -4.0633    0.0000 O.2     1  UNL1       -0.2512
      9 O           8.5614    1.2559    0.0000 O.2     1  UNL1       -0.2512
     10 O           6.5270    1.8780    0.0000 O.2     1  UNL1       -0.2449
     11 O           9.9692   -0.6565    0.0000 O.2     1  UNL1       -0.2512
     12 C           4.9994   -1.5312    0.0000 C.3     1  UNL1        0.0638
     13 C           7.0238   -0.5563    0.0000 C.3     1  UNL1        0.0557
     14 C           6.8013   -1.5312    0.0000 C.3     1  UNL1        0.0326
     15 C           5.9003   -1.9651    0.0000 C.3     1  UNL1        0.1224
     16 C           4.7768   -0.5563    0.0000 C.2     1  UNL1       -0.0121
     17 C           6.4004    0.2255    0.0000 C.3     1  UNL1        0.1530
     18 C           4.1447   -2.0388    0.0000 C.3     1  UNL1       -0.0074
     19 C           5.4004    0.2255    0.0000 C.3     1  UNL1        0.1628
     20 C           5.0492   -2.5300    0.0000 C.3     1  UNL1        0.0734
     21 C           8.0143   -0.2340    0.0000 C.3     1  UNL1        0.1152
     22 C           3.3966   -1.3842    0.0000 C.3     1  UNL1        0.0774
     23 C           7.5538   -2.2514    0.0000 C.2     1  UNL1       -0.0411
     24 C           3.7866   -0.4697    0.0000 C.2     1  UNL1       -0.0410
     25 C           8.7833   -0.9366    0.0000 C.3     1  UNL1        0.0149
     26 C           7.2464    0.4186    0.0000 C.3     1  UNL1       -0.0520
     27 C           8.5516   -1.9521    0.0000 C.3     1  UNL1        0.0798
     28 C           4.1277   -2.9183    0.0000 C.3     1  UNL1       -0.0354
     29 C           6.1978   -2.4727    0.0000 C.3     1  UNL1       -0.0354
     30 C           3.2722    0.3878    0.0000 C.3     1  UNL1       -0.0410
     31 C           7.8376   -3.2103    0.0000 C.2     1  UNL1       -0.0966
     32 C           6.0687   -3.8896    0.0000 C.2     1  UNL1        0.3043
     33 C           7.6605    1.6898    0.0000 C.2     1  UNL1        0.3043
     34 C           5.5298    1.9528    0.0000 C.2     1  UNL1        0.3399
     35 C           9.6634    0.2956    0.0000 C.2     1  UNL1        0.3042
     36 C           5.4260   -4.6557    0.0000 C.3     1  UNL1        0.0332
     37 C           7.5858    2.6870    0.0000 C.3     1  UNL1        0.0332
     38 C          10.3351    1.0365    0.0000 C.3     1  UNL1        0.0332
     39 C           5.0959    2.8537    0.0000 C.ar    1  UNL1        0.0590
     40 C           5.6592    3.6800    0.0000 C.ar    1  UNL1       -0.0478
     41 C           4.0987    2.9285    0.0000 C.ar    1  UNL1       -0.0478
     42 C           5.2254    4.5809    0.0000 C.ar    1  UNL1       -0.0610
     43 C           3.6648    3.8294    0.0000 C.ar    1  UNL1       -0.0610
     44 C           4.2282    4.6557    0.0000 C.ar    1  UNL1       -0.0617
     45 H           7.6154   -1.2870    0.0000 H       1  UNL1        0.0390
     46 H           6.3946   -2.3394    0.0000 H       1  UNL1        0.0750
     47 H           6.0705    0.7505    0.0000 H       1  UNL1        0.0782
     48 H           3.6896   -2.4599    0.0000 H       1  UNL1        0.0304
     49 H           4.5156   -2.5357    0.0000 H       1  UNL1        0.0304
     50 H           4.7842    0.2950    0.0000 H       1  UNL1        0.0820
     51 H           7.6774    0.2865    0.0000 H       1  UNL1        0.0742
     52 H           2.9991   -0.9084    0.0000 H       1  UNL1        0.0640
     53 H           9.3553   -1.1759    0.0000 H       1  UNL1        0.0329
     54 H           9.1170   -0.4140    0.0000 H       1  UNL1        0.0329
     55 H           7.8508    0.2807    0.0000 H       1  UNL1        0.0238
     56 H           7.3843    1.0231    0.0000 H       1  UNL1        0.0238
     57 H           6.6419    0.5566    0.0000 H       1  UNL1        0.0238
     58 H           9.1444   -1.7705    0.0000 H       1  UNL1        0.0641
     59 H           3.8869   -2.3470    0.0000 H       1  UNL1        0.0257
     60 H           3.5564   -3.1591    0.0000 H       1  UNL1        0.0257
     61 H           4.3685   -3.4897    0.0000 H       1  UNL1        0.0257
     62 H           6.2287   -3.0919    0.0000 H       1  UNL1        0.0257
     63 H           6.8170   -2.4418    0.0000 H       1  UNL1        0.0257
     64 H           6.1669   -1.8534    0.0000 H       1  UNL1        0.0257
     65 H           3.8039    0.7067    0.0000 H       1  UNL1        0.0275
     66 H           2.9533    0.9195    0.0000 H       1  UNL1        0.0275
     67 H           2.7405    0.0689    0.0000 H       1  UNL1        0.0275
     68 H           4.5783   -3.8651    0.0000 H       1  UNL1        0.2102
     69 H           7.4107   -3.6599    0.0000 H       1  UNL1        0.0535
     70 H           8.4404   -3.3552    0.0000 H       1  UNL1        0.0535
     71 H           2.0000   -1.1522    0.0000 H       1  UNL1        0.2102
     72 H           9.8751   -2.4546    0.0000 H       1  UNL1        0.2102
     73 H           4.9510   -4.2572    0.0000 H       1  UNL1        0.0342
     74 H           5.0275   -5.1306    0.0000 H       1  UNL1        0.0342
     75 H           5.9010   -5.0542    0.0000 H       1  UNL1        0.0342
     76 H           8.2040    2.7334    0.0000 H       1  UNL1        0.0342
     77 H           7.5394    3.3053    0.0000 H       1  UNL1        0.0342
     78 H           6.9675    2.6407    0.0000 H       1  UNL1        0.0342
     79 H          10.7944    0.6201    0.0000 H       1  UNL1        0.0342
     80 H          10.7515    1.4958    0.0000 H       1  UNL1        0.0342
     81 H           9.8758    1.4529    0.0000 H       1  UNL1        0.0342
     82 H           6.2775    3.6336    0.0000 H       1  UNL1        0.0626
     83 H           3.7494    2.4162    0.0000 H       1  UNL1        0.0626
     84 H           5.5746    5.0932    0.0000 H       1  UNL1        0.0618
     85 H           3.0466    3.8758    0.0000 H       1  UNL1        0.0618
     86 H           3.9592    5.2143    0.0000 H       1  UNL1        0.0618
@<TRIPOS>BOND
     1    15     1    1
     2     1    32    1
     3    17     2    1
     4     2    33    1
     5    19     3    1
     6     3    34    1
     7    21     4    1
     8     4    35    1
     9     5    20    1
    10     5    68    1
    11    22     6    1
    12     6    71    1
    13    27     7    1
    14     7    72    1
    15     8    32    2
    16     9    33    2
    17    10    34    2
    18    11    35    2
    19    12    15    1
    20    12    16    1
    21    12    18    1
    22    12    20    1
    23    13    14    1
    24    13    17    1
    25    13    21    1
    26    13    26    1
    27    14    15    1
    28    14    23    1
    29    14    45    1
    30    15    46    1
    31    16    19    1
    32    16    24    2
    33    17    19    1
    34    17    47    1
    35    18    22    1
    36    18    48    1
    37    18    49    1
    38    19    50    1
    39    20    28    1
    40    20    29    1
    41    21    25    1
    42    21    51    1
    43    22    24    1
    44    22    52    1
    45    23    27    1
    46    23    31    2
    47    24    30    1
    48    25    27    1
    49    25    53    1
    50    25    54    1
    51    26    55    1
    52    26    56    1
    53    26    57    1
    54    27    58    1
    55    28    59    1
    56    28    60    1
    57    28    61    1
    58    29    62    1
    59    29    63    1
    60    29    64    1
    61    30    65    1
    62    30    66    1
    63    30    67    1
    64    31    69    1
    65    31    70    1
    66    32    36    1
    67    33    37    1
    68    34    39    1
    69    35    38    1
    70    36    73    1
    71    36    74    1
    72    36    75    1
    73    37    76    1
    74    37    77    1
    75    37    78    1
    76    38    79    1
    77    38    80    1
    78    38    81    1
    79    39    40   ar
    80    39    41   ar
    81    40    42   ar
    82    40    82    1
    83    41    43   ar
    84    41    83    1
    85    42    44   ar
    86    42    84    1
    87    43    44   ar
    88    43    85    1
    89    44    86    1
