@<TRIPOS>MOLECULE
IMPHY005220
 52 58 0 0 0
SMALL
GASTEIGER

@<TRIPOS>ATOM
      1 O           7.6682   -2.0387    0.0000 O.3     1  UNL1       -0.3717
      2 O           4.4011   -2.0766    0.0000 O.2     1  UNL1       -0.2752
      3 O           2.0000    1.2339    0.0000 O.3     1  UNL1       -0.5033
      4 O           2.0000   -0.6903    0.0000 O.3     1  UNL1       -0.4914
      5 N           6.6757    2.1000    0.0000 N.3     1  UNL1       -0.2946
      6 N           5.2671   -0.6524    0.0000 N.am    1  UNL1       -0.2666
      7 C           6.0675    0.7339    0.0000 C.3     1  UNL1        0.0336
      8 C           6.0675   -0.1903    0.0000 C.3     1  UNL1        0.0479
      9 C           6.8678    1.1960    0.0000 C.3     1  UNL1        0.0227
     10 C           6.8678   -0.6524    0.0000 C.3     1  UNL1        0.0122
     11 C           7.6682   -0.1903    0.0000 C.3     1  UNL1       -0.0103
     12 C           7.6682    0.7339    0.0000 C.3     1  UNL1       -0.0295
     13 C           5.3807    1.3523    0.0000 C.3     1  UNL1       -0.0273
     14 C           4.4668    0.7339    0.0000 C.ar    1  UNL1       -0.0128
     15 C           5.7566    2.1965    0.0000 C.3     1  UNL1        0.0004
     16 C           6.8678   -1.5766    0.0000 C.3     1  UNL1        0.0724
     17 C           8.5285   -0.5279    0.0000 C.2     1  UNL1       -0.0538
     18 C           8.4927    1.2986    0.0000 C.3     1  UNL1        0.0207
     19 C           4.4668   -0.1903    0.0000 C.ar    1  UNL1        0.0441
     20 C           6.0675   -2.0387    0.0000 C.3     1  UNL1        0.0511
     21 C           5.2671   -1.5766    0.0000 C.2     1  UNL1        0.2225
     22 C           3.6664    1.1960    0.0000 C.ar    1  UNL1       -0.0109
     23 C           8.8418   -1.1658    0.0000 C.2     1  UNL1       -0.0579
     24 C           8.3900   -2.0284    0.0000 C.3     1  UNL1        0.0665
     25 C           3.6664   -0.6524    0.0000 C.ar    1  UNL1        0.0054
     26 C           2.8660    0.7339    0.0000 C.ar    1  UNL1        0.1588
     27 C           2.8660   -0.1903    0.0000 C.ar    1  UNL1        0.1630
     28 C           2.0000   -1.6903    0.0000 C.3     1  UNL1        0.0790
     29 H           6.0701   -1.0403    0.0000 H       1  UNL1        0.0517
     30 H           7.6103    1.6098    0.0000 H       1  UNL1        0.0472
     31 H           7.6040   -1.0774    0.0000 H       1  UNL1        0.0350
     32 H           8.3705    0.2885    0.0000 H       1  UNL1        0.0351
     33 H           8.2788    0.6262    0.0000 H       1  UNL1        0.0286
     34 H           7.8802    1.3165    0.0000 H       1  UNL1        0.0286
     35 H           4.8437    1.6623    0.0000 H       1  UNL1        0.0287
     36 H           5.0162    0.8507    0.0000 H       1  UNL1        0.0287
     37 H           5.8855    2.8030    0.0000 H       1  UNL1        0.0427
     38 H           5.1669    2.3881    0.0000 H       1  UNL1        0.0427
     39 H           6.8605   -2.4265    0.0000 H       1  UNL1        0.0604
     40 H           9.1078    1.2211    0.0000 H       1  UNL1        0.0473
     41 H           8.6582    1.8961    0.0000 H       1  UNL1        0.0473
     42 H           5.6690   -2.5136    0.0000 H       1  UNL1        0.0384
     43 H           6.4660   -2.5136    0.0000 H       1  UNL1        0.0384
     44 H           3.6664    1.8160    0.0000 H       1  UNL1        0.0659
     45 H           9.4617   -1.1739    0.0000 H       1  UNL1        0.0595
     46 H           8.2965   -2.6413    0.0000 H       1  UNL1        0.0604
     47 H           8.9791   -2.2216    0.0000 H       1  UNL1        0.0604
     48 H           3.6664   -1.2724    0.0000 H       1  UNL1        0.0674
     49 H           2.0000    1.8539    0.0000 H       1  UNL1        0.2923
     50 H           1.3800   -1.6903    0.0000 H       1  UNL1        0.0660
     51 H           2.0000   -2.3103    0.0000 H       1  UNL1        0.0660
     52 H           2.6200   -1.6903    0.0000 H       1  UNL1        0.0660
@<TRIPOS>BOND
     1     1    16    1
     2     1    24    1
     3     2    21    2
     4     3    26    1
     5     3    49    1
     6     4    27    1
     7     4    28    1
     8     5     9    1
     9     5    15    1
    10     5    18    1
    11     6     8    1
    12     6    19    1
    13     6    21   am
    14     7     8    1
    15     7     9    1
    16     7    13    1
    17     7    14    1
    18     8    10    1
    19     8    29    1
    20     9    12    1
    21     9    30    1
    22    10    11    1
    23    10    16    1
    24    10    31    1
    25    11    12    1
    26    11    17    1
    27    11    32    1
    28    12    33    1
    29    12    34    1
    30    13    15    1
    31    13    35    1
    32    13    36    1
    33    14    19   ar
    34    14    22   ar
    35    15    37    1
    36    15    38    1
    37    16    20    1
    38    16    39    1
    39    17    18    1
    40    17    23    2
    41    18    40    1
    42    18    41    1
    43    19    25   ar
    44    20    21    1
    45    20    42    1
    46    20    43    1
    47    22    26   ar
    48    22    44    1
    49    23    24    1
    50    23    45    1
    51    24    46    1
    52    24    47    1
    53    25    27   ar
    54    25    48    1
    55    26    27   ar
    56    28    50    1
    57    28    51    1
    58    28    52    1
