@<TRIPOS>MOLECULE
IMPHY016820
 33 33 0 0 0
SMALL
GASTEIGER

@<TRIPOS>ATOM
      1 O           4.5981    1.5000    0.0000 O.3     1  UNL1       -0.4645
      2 O           5.4641    0.0000    0.0000 O.2     1  UNL1       -0.2502
      3 C           2.8660    0.5000    0.0000 C.3     1  UNL1       -0.0297
      4 C           3.7320    0.0000    0.0000 C.3     1  UNL1        0.0837
      5 C           3.7320   -1.0000    0.0000 C.ar    1  UNL1       -0.0334
      6 C           2.8660    1.5000    0.0000 C.3     1  UNL1       -0.0616
      7 C           2.0000    0.0000    0.0000 C.3     1  UNL1       -0.0616
      8 C           4.5981    0.5000    0.0000 C.2     1  UNL1        0.3148
      9 C           2.8660   -1.5000    0.0000 C.ar    1  UNL1       -0.0578
     10 C           4.5981   -1.5000    0.0000 C.ar    1  UNL1       -0.0578
     11 C           2.8660   -2.5000    0.0000 C.ar    1  UNL1       -0.0615
     12 C           4.5981   -2.5000    0.0000 C.ar    1  UNL1       -0.0615
     13 C           3.7320   -3.0000    0.0000 C.ar    1  UNL1       -0.0617
     14 C           5.4641    2.0000    0.0000 C.3     1  UNL1        0.0897
     15 C           5.4641    3.0000    0.0000 C.3     1  UNL1       -0.0306
     16 H           3.7320    0.6200    0.0000 H       1  UNL1        0.0465
     17 H           2.8660   -0.1200    0.0000 H       1  UNL1        0.0306
     18 H           3.4860    1.5000    0.0000 H       1  UNL1        0.0233
     19 H           2.8660    2.1200    0.0000 H       1  UNL1        0.0233
     20 H           2.2460    1.5000    0.0000 H       1  UNL1        0.0233
     21 H           1.6900    0.5369    0.0000 H       1  UNL1        0.0233
     22 H           1.4631   -0.3100    0.0000 H       1  UNL1        0.0233
     23 H           2.3100   -0.5369    0.0000 H       1  UNL1        0.0233
     24 H           2.3291   -1.1900    0.0000 H       1  UNL1        0.0621
     25 H           5.1350   -1.1900    0.0000 H       1  UNL1        0.0621
     26 H           2.3291   -2.8100    0.0000 H       1  UNL1        0.0618
     27 H           5.1350   -2.8100    0.0000 H       1  UNL1        0.0618
     28 H           3.7320   -3.6200    0.0000 H       1  UNL1        0.0618
     29 H           5.6762    1.4174    0.0000 H       1  UNL1        0.0694
     30 H           6.0747    2.1077    0.0000 H       1  UNL1        0.0694
     31 H           6.0841    3.0000    0.0000 H       1  UNL1        0.0262
     32 H           5.4641    3.6200    0.0000 H       1  UNL1        0.0262
     33 H           4.8441    3.0000    0.0000 H       1  UNL1        0.0262
@<TRIPOS>BOND
     1     1     8    1
     2     1    14    1
     3     2     8    2
     4     3     4    1
     5     3     6    1
     6     3     7    1
     7     3    17    1
     8     4     5    1
     9     4     8    1
    10     4    16    1
    11     5     9   ar
    12     5    10   ar
    13     6    18    1
    14     6    19    1
    15     6    20    1
    16     7    21    1
    17     7    22    1
    18     7    23    1
    19     9    11   ar
    20     9    24    1
    21    10    12   ar
    22    10    25    1
    23    11    13   ar
    24    11    26    1
    25    12    13   ar
    26    12    27    1
    27    13    28    1
    28    14    15    1
    29    14    29    1
    30    14    30    1
    31    15    31    1
    32    15    32    1
    33    15    33    1
