@<TRIPOS>MOLECULE
IMPHY010633
 49 53 0 0 0
SMALL
GASTEIGER

@<TRIPOS>ATOM
      1 O          17.2446   -4.0322    0.0000 O.3     1  UNL1       -0.3256
      2 C          16.0897   -3.3667    0.0000 C.3     1  UNL1        0.2698
      3 C          16.0897   -2.0357    0.0000 C.3     1  UNL1        0.2406
      4 C          17.2446   -1.3702    0.0000 C.3     1  UNL1        0.2198
      5 C          18.3995   -2.0357    0.0000 C.3     1  UNL1        0.2144
      6 C          18.3995   -3.3667    0.0000 C.3     1  UNL1        0.1835
      7 O          14.9349   -4.0322    0.0000 O.3     1  UNL1       -0.3240
      8 C          13.7800   -3.3863    0.0000 C.3     1  UNL1        0.1668
      9 C          12.6056   -4.0518    0.0000 C.2     1  UNL1       -0.0188
     10 C          11.4507   -3.3863    0.0000 C.2     1  UNL1       -0.0321
     11 C          10.3350   -4.0518    0.0000 C.3     1  UNL1        0.0280
     12 C           9.1997   -3.3863    0.0000 C.3     1  UNL1        0.0347
     13 C           8.0449   -4.0518    0.0000 C.3     1  UNL1        0.1233
     14 O           8.0449   -2.8382    0.0000 O.3     1  UNL1       -0.2260
     15 O          14.9153   -1.3702    0.0000 O.3     1  UNL1       -0.2149
     16 O          17.2250    0.0000    0.0000 O.3     1  UNL1       -0.2174
     17 O          19.5543   -1.3506    0.0000 O.3     1  UNL1       -0.2176
     18 C          19.5739   -4.0126    0.0000 C.3     1  UNL1        0.2142
     19 O          19.5739   -5.3632    0.0000 O.3     1  UNL1       -0.2176
     20 C          12.6056   -5.4024    0.0000 C.3     1  UNL1        0.0286
     21 C           8.0449   -5.4024    0.0000 C.3     1  UNL1        0.0036
     22 C           6.8900   -6.0679    0.0000 C.3     1  UNL1       -0.0203
     23 C           6.8900   -7.3402    0.0000 C.3     1  UNL1       -0.0038
     24 C           5.7743   -8.0449    0.0000 C.3     1  UNL1       -0.0012
     25 C           4.5803   -7.3402    0.0000 C.3     1  UNL1       -0.0192
     26 C           3.4450   -8.0449    0.0000 C.3     1  UNL1       -0.0037
     27 C           3.4450   -9.3759    0.0000 C.3     1  UNL1        0.0151
     28 C           4.5803  -10.0414    0.0000 C.3     1  UNL1        0.1486
     29 C           5.7743   -9.3759    0.0000 C.3     1  UNL1        0.0323
     30 C           9.1997   -6.0679    0.0000 C.3     1  UNL1       -0.0019
     31 C           9.1997   -7.3402    0.0000 C.3     1  UNL1       -0.0005
     32 C           5.7743   -5.4024    0.0000 C.3     1  UNL1       -0.0045
     33 C           4.5803   -6.0679    0.0000 C.3     1  UNL1       -0.0043
     34 C           2.2901   -7.3402    0.0000 C.3     1  UNL1        0.0073
     35 C           1.1744   -8.0449    0.0000 C.3     1  UNL1        0.0645
     36 C           1.1744   -9.3759    0.0000 C.2     1  UNL1        0.1496
     37 C           2.2901  -10.0414    0.0000 C.3     1  UNL1        0.0504
     38 C           6.8900   -3.3863    0.0000 C.3     1  UNL1        0.0326
     39 C           6.8900   -8.6908    0.0000 C.3     1  UNL1       -0.0003
     40 C           5.7743   -6.6943    0.0000 C.3     1  UNL1       -0.0002
     41 C           3.4450   -6.6943    0.0000 C.3     1  UNL1       -0.0005
     42 O           4.5803  -11.3333    0.0000 O.3     1  UNL1       -0.2235
     43 O           0.0000  -10.0414    0.0000 O.2     1  UNL1       -0.2961
     44 C           1.6442  -11.1571    0.0000 C.3     1  UNL1        0.0071
     45 C           2.9557  -11.1571    0.0000 C.3     1  UNL1        0.0071
     46 H           8.0253   -6.5181    0.0000 H       1  UNL1        0.0339
     47 H           4.5803   -8.4168    0.0000 H       1  UNL1        0.0318
     48 H           3.4450  -10.4133    0.0000 H       1  UNL1        0.0346
     49 H           6.8704   -4.8348    0.0000 H       1  UNL1        0.0316
@<TRIPOS>BOND
     1     1     2    1
     2     1     6    1
     3     2     7    1
     4     2     3    1
     5     3     4    1
     6     3    15    1
     7     4     5    1
     8     4    16    1
     9     5     6    1
    10     5    17    1
    11     6    18    1
    12     7     8    1
    13     8     9    1
    14     9    10    2
    15     9    20    1
    16    10    11    1
    17    11    12    1
    18    13    12    1
    19    13    21    1
    20    13    38    1
    21    13    14    1
    22    18    19    1
    23    21    22    1
    24    21    30    1
    25    21    46    1
    26    22    32    1
    27    22    23    1
    28    22    49    1
    29    23    24    1
    30    23    39    1
    31    23    31    1
    32    24    25    1
    33    24    29    1
    34    24    40    1
    35    25    26    1
    36    25    33    1
    37    25    47    1
    38    26    34    1
    39    26    27    1
    40    26    41    1
    41    27    37    1
    42    27    28    1
    43    27    48    1
    44    28    29    1
    45    28    42    1
    46    30    31    1
    47    32    33    1
    48    34    35    1
    49    35    36    1
    50    36    37    1
    51    36    43    2
    52    37    45    1
    53    37    44    1
