@<TRIPOS>MOLECULE
IMPHY011193
 78 83 0 0 0
SMALL
GASTEIGER

@<TRIPOS>ATOM
      1 O           6.8383   -0.9635    0.0000 O.3     1  UNL1       -0.3633
      2 O          10.2824   -1.4523    0.0000 O.3     1  UNL1       -0.4600
      3 O           3.8185   -0.7867    0.0000 O.3     1  UNL1       -0.4559
      4 O           7.9806    3.1556    0.0000 O.2     1  UNL1       -0.2963
      5 O          10.7395    2.8389    0.0000 O.3     1  UNL1       -0.3803
      6 O           4.3137   -2.5257    0.0000 O.2     1  UNL1       -0.2508
      7 O          12.7368    2.7342    0.0000 O.3     1  UNL1       -0.4661
      8 O          12.6461    1.0046    0.0000 O.2     1  UNL1       -0.2479
      9 O           2.0000    1.7434    0.0000 O.2     1  UNL1       -0.4706
     10 O          12.0121   -1.3616    0.0000 O.2     1  UNL1       -0.2509
     11 C           6.9084    0.0345    0.0000 C.3     1  UNL1        0.1044
     12 C           7.1840    0.9958    0.0000 C.3     1  UNL1        0.0034
     13 C           7.7374   -0.5247    0.0000 C.3     1  UNL1        0.1019
     14 C           9.2172    1.3069    0.0000 C.3     1  UNL1        0.0385
     15 C           5.9017   -0.2330    0.0000 C.3     1  UNL1        0.0100
     16 C           8.9584    0.3410    0.0000 C.3     1  UNL1        0.0844
     17 C           5.1723    0.5107    0.0000 C.3     1  UNL1        0.0153
     18 C          10.6489    1.1092    0.0000 C.3     1  UNL1        0.0164
     19 C           6.4720    1.7561    0.0000 C.3     1  UNL1       -0.0460
     20 C           8.4806    2.2895    0.0000 C.2     1  UNL1        0.1491
     21 C          11.0072    0.1757    0.0000 C.3     1  UNL1        0.0095
     22 C          10.2301   -0.4537    0.0000 C.3     1  UNL1        0.1205
     23 C           5.4594    1.5119    0.0000 C.3     1  UNL1       -0.0432
     24 C           5.6268   -1.2826    0.0000 C.3     1  UNL1        0.0511
     25 C           9.4761    2.2728    0.0000 C.3     1  UNL1       -0.0521
     26 C           4.1176    0.2563    0.0000 C.3     1  UNL1        0.1366
     27 C          11.1935    1.9479    0.0000 C.3     1  UNL1        0.1558
     28 C           4.4722    1.2246    0.0000 C.3     1  UNL1       -0.0555
     29 C          11.9732    0.4345    0.0000 C.3     1  UNL1       -0.0560
     30 C          11.7144   -0.5314    0.0000 C.3     1  UNL1       -0.0560
     31 C           4.5782   -1.5613    0.0000 C.2     1  UNL1        0.3081
     32 C           3.4257    0.9783    0.0000 C.ar    1  UNL1        0.0309
     33 C          12.1921    1.8956    0.0000 C.2     1  UNL1        0.3361
     34 C          11.1734   -1.9063    0.0000 C.2     1  UNL1        0.3071
     35 C           3.6031    1.9624    0.0000 C.ar    1  UNL1       -0.0172
     36 C           2.4349    0.8430    0.0000 C.ar    1  UNL1        0.0984
     37 C          11.2258   -2.9049    0.0000 C.3     1  UNL1        0.0421
     38 C           2.7220    2.4353    0.0000 C.ar    1  UNL1        0.0921
     39 C          13.7354    2.6819    0.0000 C.3     1  UNL1        0.0817
     40 C          12.1168   -3.3589    0.0000 C.3     1  UNL1       -0.0552
     41 H           7.4183    1.8128    0.0000 H       1  UNL1        0.0339
     42 H           8.4421   -1.0000    0.0000 H       1  UNL1        0.0633
     43 H           6.5038   -0.8330    0.0000 H       1  UNL1        0.0341
     44 H           8.7384   -0.4801    0.0000 H       1  UNL1        0.0441
     45 H          11.4942    1.0204    0.0000 H       1  UNL1        0.0347
     46 H           6.9905    2.0962    0.0000 H       1  UNL1        0.0269
     47 H           6.2257    2.3251    0.0000 H       1  UNL1        0.0269
     48 H          10.7965   -0.7058    0.0000 H       1  UNL1        0.0747
     49 H           5.4194    2.1306    0.0000 H       1  UNL1        0.0272
     50 H           4.8430    1.5783    0.0000 H       1  UNL1        0.0272
     51 H           5.6812   -1.9002    0.0000 H       1  UNL1        0.0381
     52 H           6.2446   -1.3348    0.0000 H       1  UNL1        0.0381
     53 H          10.0749    2.1124    0.0000 H       1  UNL1        0.0239
     54 H           9.6365    2.8717    0.0000 H       1  UNL1        0.0239
     55 H           8.8772    2.4333    0.0000 H       1  UNL1        0.0239
     56 H           3.5157    0.1075    0.0000 H       1  UNL1        0.0792
     57 H          11.5312    2.4679    0.0000 H       1  UNL1        0.0713
     58 H           4.9148    1.6587    0.0000 H       1  UNL1        0.0236
     59 H           4.0380    1.6673    0.0000 H       1  UNL1        0.0236
     60 H           4.0295    0.7905    0.0000 H       1  UNL1        0.0236
     61 H          12.1336   -0.1644    0.0000 H       1  UNL1        0.0236
     62 H          12.5720    0.5950    0.0000 H       1  UNL1        0.0236
     63 H          11.8127    1.0334    0.0000 H       1  UNL1        0.0236
     64 H          11.2759   -0.9698    0.0000 H       1  UNL1        0.0236
     65 H          12.1528   -0.9698    0.0000 H       1  UNL1        0.0236
     66 H          12.1528   -0.0930    0.0000 H       1  UNL1        0.0236
     67 H          11.0772    3.3589    0.0000 H       1  UNL1        0.2105
     68 H           4.1614    2.2321    0.0000 H       1  UNL1        0.0653
     69 H           2.1417    0.2966    0.0000 H       1  UNL1        0.1033
     70 H          10.6104   -2.8293    0.0000 H       1  UNL1        0.0375
     71 H          11.0445   -3.4978    0.0000 H       1  UNL1        0.0375
     72 H           2.6381    3.0496    0.0000 H       1  UNL1        0.1029
     73 H          13.7030    2.0628    0.0000 H       1  UNL1        0.0661
     74 H          14.3546    2.6495    0.0000 H       1  UNL1        0.0661
     75 H          13.7679    3.3011    0.0000 H       1  UNL1        0.0661
     76 H          11.8353   -3.9113    0.0000 H       1  UNL1        0.0235
     77 H          12.6692   -3.6404    0.0000 H       1  UNL1        0.0235
     78 H          12.3983   -2.8065    0.0000 H       1  UNL1        0.0235
@<TRIPOS>BOND
     1    11     1    1
     2     1    13    1
     3    22     2    1
     4     2    34    1
     5     3    26    1
     6     3    31    1
     7     4    20    2
     8    27     5    1
     9     5    67    1
    10     6    31    2
    11     7    33    1
    12     7    39    1
    13     8    33    2
    14     9    36   ar
    15     9    38   ar
    16    10    34    2
    17    11    12    1
    18    11    13    1
    19    11    15    1
    20    12    14    1
    21    12    19    1
    22    12    41    1
    23    13    16    1
    24    13    42    1
    25    14    18    1
    26    14    20    1
    27    14    25    1
    28    15    17    1
    29    15    24    1
    30    15    43    1
    31    16    20    1
    32    16    22    1
    33    16    44    1
    34    17    23    1
    35    17    26    1
    36    17    28    1
    37    18    21    1
    38    18    27    1
    39    18    45    1
    40    19    23    1
    41    19    46    1
    42    19    47    1
    43    21    22    1
    44    21    29    1
    45    21    30    1
    46    22    48    1
    47    23    49    1
    48    23    50    1
    49    24    31    1
    50    24    51    1
    51    24    52    1
    52    25    53    1
    53    25    54    1
    54    25    55    1
    55    26    32    1
    56    26    56    1
    57    27    33    1
    58    27    57    1
    59    28    58    1
    60    28    59    1
    61    28    60    1
    62    29    61    1
    63    29    62    1
    64    29    63    1
    65    30    64    1
    66    30    65    1
    67    30    66    1
    68    32    35   ar
    69    32    36   ar
    70    34    37    1
    71    35    38   ar
    72    35    68    1
    73    36    69    1
    74    37    40    1
    75    37    70    1
    76    37    71    1
    77    38    72    1
    78    39    73    1
    79    39    74    1
    80    39    75    1
    81    40    76    1
    82    40    77    1
    83    40    78    1
