@<TRIPOS>MOLECULE
IMPHY002029
 100 103 0 0 0
SMALL
GASTEIGER

@<TRIPOS>ATOM
      1 O          20.1648   -2.2315    0.0000 O.3     1  UNL1       -0.3565
      2 O          21.1648   -5.6962    0.0000 O.3     1  UNL1       -0.3917
      3 O           6.0812    3.0254    0.0000 O.3     1  UNL1       -0.3577
      4 O           2.5369    2.8301    0.0000 O.3     1  UNL1       -0.3917
      5 C          19.6648   -3.0981    0.0000 C.3     1  UNL1        0.1224
      6 C          20.6648   -3.0981    0.0000 C.3     1  UNL1        0.1032
      7 C          19.1648   -3.9641    0.0000 C.3     1  UNL1        0.0029
      8 C          21.1648   -3.9641    0.0000 C.3     1  UNL1        0.0052
      9 C          19.6648   -4.8301    0.0000 C.3     1  UNL1       -0.0186
     10 C          20.6648   -4.8301    0.0000 C.3     1  UNL1        0.0585
     11 C          21.6648   -3.0981    0.0000 C.3     1  UNL1       -0.0326
     12 C          18.6648   -3.0981    0.0000 C.2     1  UNL1       -0.0491
     13 C          18.6648   -4.8301    0.0000 C.3     1  UNL1       -0.0567
     14 C          18.2251   -4.3060    0.0000 C.3     1  UNL1       -0.0567
     15 C          18.1648   -2.2320    0.0000 C.2     1  UNL1       -0.0600
     16 C          17.1648   -2.2320    0.0000 C.2     1  UNL1       -0.0507
     17 C           5.1350    3.3301    0.0000 C.3     1  UNL1        0.0918
     18 C           4.2690    4.8301    0.0000 C.3     1  UNL1       -0.0088
     19 C           5.1350    4.3301    0.0000 C.2     1  UNL1       -0.0338
     20 C           4.2690    2.8301    0.0000 C.3     1  UNL1        0.0061
     21 C           3.4030    4.3301    0.0000 C.3     1  UNL1       -0.0178
     22 C           3.4030    3.3301    0.0000 C.3     1  UNL1        0.0589
     23 C          16.6648   -3.0981    0.0000 C.3     1  UNL1       -0.0397
     24 C          16.6648   -1.3660    0.0000 C.2     1  UNL1       -0.0588
     25 C           6.0812    4.6349    0.0000 C.2     1  UNL1       -0.0491
     26 C           6.6648    3.8301    0.0000 C.3     1  UNL1        0.0994
     27 C           5.1350    2.3301    0.0000 C.3     1  UNL1       -0.0318
     28 C           3.7690    5.6962    0.0000 C.3     1  UNL1       -0.0559
     29 C           4.7690    5.6962    0.0000 C.3     1  UNL1       -0.0559
     30 C           7.6648    3.8301    0.0000 C.2     1  UNL1       -0.0404
     31 C          15.6648   -1.3660    0.0000 C.2     1  UNL1       -0.0613
     32 C           8.1648    4.6962    0.0000 C.3     1  UNL1       -0.0408
     33 C           8.1648    2.9641    0.0000 C.2     1  UNL1       -0.0600
     34 C          15.1648   -0.5000    0.0000 C.2     1  UNL1       -0.0588
     35 C           9.1648    2.9641    0.0000 C.2     1  UNL1       -0.0615
     36 C          14.1648   -0.5000    0.0000 C.2     1  UNL1       -0.0504
     37 C           9.6648    2.0981    0.0000 C.2     1  UNL1       -0.0588
     38 C          13.6648   -1.3660    0.0000 C.3     1  UNL1       -0.0397
     39 C          13.6648    0.3660    0.0000 C.2     1  UNL1       -0.0588
     40 C          10.6648    2.0981    0.0000 C.2     1  UNL1       -0.0504
     41 C          12.6648    0.3660    0.0000 C.2     1  UNL1       -0.0615
     42 C          11.1648    1.2320    0.0000 C.2     1  UNL1       -0.0588
     43 C          11.1648    2.9641    0.0000 C.3     1  UNL1       -0.0397
     44 C          12.1648    1.2320    0.0000 C.2     1  UNL1       -0.0615
     45 H          21.6398   -4.3626    0.0000 H       1  UNL1        0.0319
     46 H          21.6398   -3.5656    0.0000 H       1  UNL1        0.0319
     47 H          19.0822   -5.0422    0.0000 H       1  UNL1        0.0296
     48 H          19.7725   -5.4407    0.0000 H       1  UNL1        0.0296
     49 H          20.3548   -5.3671    0.0000 H       1  UNL1        0.0594
     50 H          21.6648   -3.7181    0.0000 H       1  UNL1        0.0258
     51 H          22.2848   -3.0981    0.0000 H       1  UNL1        0.0258
     52 H          21.6648   -2.4781    0.0000 H       1  UNL1        0.0258
     53 H          18.1899   -3.4966    0.0000 H       1  UNL1        0.0602
     54 H          18.1279   -4.5201    0.0000 H       1  UNL1        0.0236
     55 H          18.3548   -5.3670    0.0000 H       1  UNL1        0.0236
     56 H          19.2017   -5.1401    0.0000 H       1  UNL1        0.0236
     57 H          18.0131   -3.7234    0.0000 H       1  UNL1        0.0236
     58 H          17.6425   -4.5180    0.0000 H       1  UNL1        0.0236
     59 H          18.4371   -4.8887    0.0000 H       1  UNL1        0.0236
     60 H          21.7848   -5.6962    0.0000 H       1  UNL1        0.2098
     61 H          18.4748   -1.6951    0.0000 H       1  UNL1        0.0618
     62 H           3.8705    2.3552    0.0000 H       1  UNL1        0.0321
     63 H           4.6675    2.3552    0.0000 H       1  UNL1        0.0321
     64 H           3.1909    4.9127    0.0000 H       1  UNL1        0.0298
     65 H           2.7924    4.2225    0.0000 H       1  UNL1        0.0298
     66 H           3.4030    2.7101    0.0000 H       1  UNL1        0.0594
     67 H          16.1279   -2.7881    0.0000 H       1  UNL1        0.0278
     68 H          16.3548   -3.6350    0.0000 H       1  UNL1        0.0278
     69 H          17.2018   -3.4081    0.0000 H       1  UNL1        0.0278
     70 H          16.9748   -0.8291    0.0000 H       1  UNL1        0.0620
     71 H           6.2738    5.2242    0.0000 H       1  UNL1        0.0601
     72 H           6.9466    3.2778    0.0000 H       1  UNL1        0.0688
     73 H           4.5150    2.3301    0.0000 H       1  UNL1        0.0261
     74 H           5.1350    1.7101    0.0000 H       1  UNL1        0.0261
     75 H           5.7550    2.3301    0.0000 H       1  UNL1        0.0261
     76 H           4.3059    6.0062    0.0000 H       1  UNL1        0.0238
     77 H           3.4590    6.2331    0.0000 H       1  UNL1        0.0238
     78 H           3.2320    5.3862    0.0000 H       1  UNL1        0.0238
     79 H           5.3059    5.3862    0.0000 H       1  UNL1        0.0238
     80 H           5.0790    6.2331    0.0000 H       1  UNL1        0.0238
     81 H           4.2320    6.0062    0.0000 H       1  UNL1        0.0238
     82 H           2.0000    3.1401    0.0000 H       1  UNL1        0.2098
     83 H          15.3548   -1.9030    0.0000 H       1  UNL1        0.0618
     84 H           8.7018    4.3862    0.0000 H       1  UNL1        0.0275
     85 H           8.4748    5.2331    0.0000 H       1  UNL1        0.0275
     86 H           7.6279    5.0062    0.0000 H       1  UNL1        0.0275
     87 H           7.8548    2.4272    0.0000 H       1  UNL1        0.0618
     88 H          15.4748    0.0369    0.0000 H       1  UNL1        0.0620
     89 H           9.4748    3.5010    0.0000 H       1  UNL1        0.0618
     90 H           9.3548    1.5611    0.0000 H       1  UNL1        0.0620
     91 H          13.1279   -1.0560    0.0000 H       1  UNL1        0.0278
     92 H          13.3548   -1.9030    0.0000 H       1  UNL1        0.0278
     93 H          14.2018   -1.6760    0.0000 H       1  UNL1        0.0278
     94 H          13.9748    0.9030    0.0000 H       1  UNL1        0.0620
     95 H          12.3548   -0.1709    0.0000 H       1  UNL1        0.0618
     96 H          10.8548    0.6951    0.0000 H       1  UNL1        0.0620
     97 H          11.7018    2.6541    0.0000 H       1  UNL1        0.0278
     98 H          11.4748    3.5010    0.0000 H       1  UNL1        0.0278
     99 H          10.6279    3.2741    0.0000 H       1  UNL1        0.0278
    100 H          12.4748    1.7690    0.0000 H       1  UNL1        0.0618
@<TRIPOS>BOND
     1     1     5    1
     2     1     6    1
     3    10     2    1
     4     2    60    1
     5     3    17    1
     6     3    26    1
     7    22     4    1
     8     4    82    1
     9     5     6    1
    10     5     7    1
    11     5    12    1
    12     6     8    1
    13     6    11    1
    14     7     9    1
    15     7    13    1
    16     7    14    1
    17     8    10    1
    18     8    45    1
    19     8    46    1
    20     9    10    1
    21     9    47    1
    22     9    48    1
    23    10    49    1
    24    11    50    1
    25    11    51    1
    26    11    52    1
    27    12    15    2
    28    12    53    1
    29    13    54    1
    30    13    55    1
    31    13    56    1
    32    14    57    1
    33    14    58    1
    34    14    59    1
    35    15    16    1
    36    15    61    1
    37    16    23    1
    38    16    24    2
    39    17    19    1
    40    17    20    1
    41    17    27    1
    42    18    19    1
    43    18    21    1
    44    18    28    1
    45    18    29    1
    46    19    25    2
    47    20    22    1
    48    20    62    1
    49    20    63    1
    50    21    22    1
    51    21    64    1
    52    21    65    1
    53    22    66    1
    54    23    67    1
    55    23    68    1
    56    23    69    1
    57    24    31    1
    58    24    70    1
    59    25    26    1
    60    25    71    1
    61    26    30    1
    62    26    72    1
    63    27    73    1
    64    27    74    1
    65    27    75    1
    66    28    76    1
    67    28    77    1
    68    28    78    1
    69    29    79    1
    70    29    80    1
    71    29    81    1
    72    30    32    1
    73    30    33    2
    74    31    34    2
    75    31    83    1
    76    32    84    1
    77    32    85    1
    78    32    86    1
    79    33    35    1
    80    33    87    1
    81    34    36    1
    82    34    88    1
    83    35    37    2
    84    35    89    1
    85    36    38    1
    86    36    39    2
    87    37    40    1
    88    37    90    1
    89    38    91    1
    90    38    92    1
    91    38    93    1
    92    39    41    1
    93    39    94    1
    94    40    42    2
    95    40    43    1
    96    41    44    2
    97    41    95    1
    98    42    44    1
    99    42    96    1
   100    43    97    1
   101    43    98    1
   102    43    99    1
   103    44   100    1
