@<TRIPOS>MOLECULE
IMPHY005015
 83 89 0 0 0
SMALL
GASTEIGER

@<TRIPOS>ATOM
      1 O           7.1982    0.9890    0.0000 O.3     1  UNL1       -0.4479
      2 O           6.6738    3.4294    0.0000 O.3     1  UNL1       -0.4914
      3 O           5.0588   -2.9156    0.0000 O.3     1  UNL1       -0.4523
      4 O           7.7312    3.4325    0.0000 O.3     1  UNL1       -0.4885
      5 O           3.3259   -3.9156    0.0000 O.3     1  UNL1       -0.4914
      6 O           9.4311    3.8560    0.0000 O.3     1  UNL1       -0.4913
      7 N           2.8660    1.4892    0.0000 N.3     1  UNL1       -0.2978
      8 N           9.7975   -0.5117    0.0000 N.2     1  UNL1       -0.2868
      9 C           3.7325    0.9890    0.0000 C.3     1  UNL1        0.0397
     10 C           4.5989    1.4892    0.0000 C.ar    1  UNL1       -0.0231
     11 C           2.8660    2.4897    0.0000 C.3     1  UNL1        0.0032
     12 C           3.7325    2.9899    0.0000 C.3     1  UNL1       -0.0144
     13 C           4.5989    2.4897    0.0000 C.ar    1  UNL1       -0.0378
     14 C           3.3259    0.0858    0.0000 C.3     1  UNL1       -0.0078
     15 C           5.4653    0.9890    0.0000 C.ar    1  UNL1       -0.0107
     16 C           2.0000    0.9892    0.0000 C.3     1  UNL1       -0.0122
     17 C           5.4653    2.9899    0.0000 C.ar    1  UNL1       -0.0128
     18 C           3.3259   -0.9147    0.0000 C.ar    1  UNL1       -0.0419
     19 C           6.3318    1.4892    0.0000 C.ar    1  UNL1        0.1703
     20 C           6.3318    2.4897    0.0000 C.ar    1  UNL1        0.1624
     21 C           4.1924   -1.4149    0.0000 C.ar    1  UNL1       -0.0124
     22 C           2.4595   -1.4149    0.0000 C.ar    1  UNL1       -0.0548
     23 C           8.9311    0.9890    0.0000 C.ar    1  UNL1        0.0455
     24 C           8.0646    1.4892    0.0000 C.ar    1  UNL1        0.1827
     25 C           9.7975    1.4892    0.0000 C.ar    1  UNL1       -0.0296
     26 C           8.9311   -0.0115    0.0000 C.2     1  UNL1        0.0512
     27 C           4.1924   -2.4154    0.0000 C.ar    1  UNL1        0.1701
     28 C          10.6640    0.9890    0.0000 C.3     1  UNL1       -0.0072
     29 C           2.4595   -2.4154    0.0000 C.ar    1  UNL1       -0.0160
     30 C           8.0646    2.4897    0.0000 C.ar    1  UNL1        0.2048
     31 C          10.6640   -0.0115    0.0000 C.3     1  UNL1        0.0440
     32 C           3.3259   -2.9156    0.0000 C.ar    1  UNL1        0.1621
     33 C           8.5245   -0.9147    0.0000 C.3     1  UNL1        0.0151
     34 C           9.7975    2.4897    0.0000 C.ar    1  UNL1       -0.0122
     35 C           8.9311    2.9899    0.0000 C.ar    1  UNL1        0.1655
     36 C           7.6581   -1.4149    0.0000 C.ar    1  UNL1       -0.0414
     37 C           6.0310    4.1954    0.0000 C.3     1  UNL1        0.0790
     38 C           5.9252   -2.4154    0.0000 C.ar    1  UNL1        0.1286
     39 C           6.7917   -0.9147    0.0000 C.ar    1  UNL1       -0.0547
     40 C           7.6581   -2.4154    0.0000 C.ar    1  UNL1       -0.0547
     41 C           5.9252   -1.4149    0.0000 C.ar    1  UNL1       -0.0191
     42 C           6.7917   -2.9156    0.0000 C.ar    1  UNL1       -0.0191
     43 C           7.9138    4.4156    0.0000 C.3     1  UNL1        0.0791
     44 C           2.4599   -4.4156    0.0000 C.3     1  UNL1        0.0790
     45 C          10.4311    3.8560    0.0000 C.3     1  UNL1        0.0790
     46 H           2.9235    0.7280    0.0000 H       1  UNL1        0.0515
     47 H           2.6540    3.0723    0.0000 H       1  UNL1        0.0430
     48 H           2.2554    2.3820    0.0000 H       1  UNL1        0.0430
     49 H           4.1310    3.4649    0.0000 H       1  UNL1        0.0326
     50 H           3.3339    3.4649    0.0000 H       1  UNL1        0.0326
     51 H           2.8964    0.5329    0.0000 H       1  UNL1        0.0332
     52 H           3.9321   -0.0444    0.0000 H       1  UNL1        0.0332
     53 H           5.4653    0.3690    0.0000 H       1  UNL1        0.0659
     54 H           1.6900    1.5262    0.0000 H       1  UNL1        0.0391
     55 H           1.4631    0.6792    0.0000 H       1  UNL1        0.0391
     56 H           2.3100    0.4523    0.0000 H       1  UNL1        0.0391
     57 H           5.4653    3.6099    0.0000 H       1  UNL1        0.0658
     58 H           4.7293   -1.1049    0.0000 H       1  UNL1        0.0658
     59 H           1.9225   -1.1049    0.0000 H       1  UNL1        0.0621
     60 H          11.2745    0.8813    0.0000 H       1  UNL1        0.0331
     61 H          10.8760    1.5716    0.0000 H       1  UNL1        0.0331
     62 H           1.9225   -2.7254    0.0000 H       1  UNL1        0.0655
     63 H          10.8760   -0.5941    0.0000 H       1  UNL1        0.0511
     64 H          11.2745    0.0962    0.0000 H       1  UNL1        0.0511
     65 H           8.6526   -1.5213    0.0000 H       1  UNL1        0.0377
     66 H           8.0646   -0.4989    0.0000 H       1  UNL1        0.0377
     67 H          10.3345    2.7997    0.0000 H       1  UNL1        0.0658
     68 H           6.5060    4.5940    0.0000 H       1  UNL1        0.0660
     69 H           5.6325    4.6704    0.0000 H       1  UNL1        0.0660
     70 H           5.5561    3.7969    0.0000 H       1  UNL1        0.0660
     71 H           6.7917   -0.2947    0.0000 H       1  UNL1        0.0622
     72 H           8.1950   -2.7254    0.0000 H       1  UNL1        0.0622
     73 H           5.3883   -1.1049    0.0000 H       1  UNL1        0.0654
     74 H           6.7917   -3.5356    0.0000 H       1  UNL1        0.0654
     75 H           8.5234    4.3024    0.0000 H       1  UNL1        0.0660
     76 H           8.0270    5.0252    0.0000 H       1  UNL1        0.0660
     77 H           7.3042    4.5289    0.0000 H       1  UNL1        0.0660
     78 H           2.1499   -3.8787    0.0000 H       1  UNL1        0.0660
     79 H           1.9230   -4.7256    0.0000 H       1  UNL1        0.0660
     80 H           2.7699   -4.9526    0.0000 H       1  UNL1        0.0660
     81 H          10.4311    3.2360    0.0000 H       1  UNL1        0.0660
     82 H          11.0511    3.8560    0.0000 H       1  UNL1        0.0660
     83 H          10.4311    4.4760    0.0000 H       1  UNL1        0.0660
@<TRIPOS>BOND
     1     1    19    1
     2     1    24    1
     3     2    20    1
     4     2    37    1
     5     3    27    1
     6     3    38    1
     7     4    30    1
     8     4    43    1
     9     5    32    1
    10     5    44    1
    11     6    35    1
    12     6    45    1
    13     7     9    1
    14     7    11    1
    15     7    16    1
    16     8    26    2
    17     8    31    1
    18     9    10    1
    19     9    14    1
    20     9    46    1
    21    10    13   ar
    22    10    15   ar
    23    11    12    1
    24    11    47    1
    25    11    48    1
    26    12    13    1
    27    12    49    1
    28    12    50    1
    29    13    17   ar
    30    14    18    1
    31    14    51    1
    32    14    52    1
    33    15    19   ar
    34    15    53    1
    35    16    54    1
    36    16    55    1
    37    16    56    1
    38    17    20   ar
    39    17    57    1
    40    18    21   ar
    41    18    22   ar
    42    19    20   ar
    43    21    27   ar
    44    21    58    1
    45    22    29   ar
    46    22    59    1
    47    23    24   ar
    48    23    25   ar
    49    23    26    1
    50    24    30   ar
    51    25    28    1
    52    25    34   ar
    53    26    33    1
    54    27    32   ar
    55    28    31    1
    56    28    60    1
    57    28    61    1
    58    29    32   ar
    59    29    62    1
    60    30    35   ar
    61    31    63    1
    62    31    64    1
    63    33    36    1
    64    33    65    1
    65    33    66    1
    66    34    35   ar
    67    34    67    1
    68    36    39   ar
    69    36    40   ar
    70    37    68    1
    71    37    69    1
    72    37    70    1
    73    38    41   ar
    74    38    42   ar
    75    39    41   ar
    76    39    71    1
    77    40    42   ar
    78    40    72    1
    79    41    73    1
    80    42    74    1
    81    43    75    1
    82    43    76    1
    83    43    77    1
    84    44    78    1
    85    44    79    1
    86    44    80    1
    87    45    81    1
    88    45    82    1
    89    45    83    1
