@<TRIPOS>MOLECULE
IMPHY007622
 162 170 0 0 0
SMALL
GASTEIGER

@<TRIPOS>ATOM
      1 O           0.5357    1.4519    0.0000 O.3     1  UNL1       -0.3912
      2 O           0.5357   11.8247    0.0000 O.3     2  UNL2       -0.3912
      3 C           5.0628    3.0042    0.0000 C.3     1  UNL1       -0.0194
      4 C           5.0628   13.3770    0.0000 C.3     2  UNL2       -0.0194
      5 C           4.1968    3.5042    0.0000 C.3     1  UNL1       -0.0257
      6 C           3.2868    2.9974    0.0000 C.3     1  UNL1       -0.0250
      7 C           5.9288    3.5042    0.0000 C.3     1  UNL1       -0.0051
      8 C           4.1968   13.8770    0.0000 C.3     2  UNL2       -0.0257
      9 C           3.2868   13.3702    0.0000 C.3     2  UNL2       -0.0250
     10 C           5.9288   13.8770    0.0000 C.3     2  UNL2       -0.0051
     11 C           3.2787    1.9558    0.0000 C.3     1  UNL1       -0.0278
     12 C           3.2787   12.3286    0.0000 C.3     2  UNL2       -0.0278
     13 C           5.0789    1.9627    0.0000 C.3     1  UNL1       -0.0463
     14 C           5.9288    4.5042    0.0000 C.2     1  UNL1       -0.0632
     15 C           5.0789   12.3355    0.0000 C.3     2  UNL2       -0.0463
     16 C           6.8228    5.0389    0.0000 C.3     1  UNL1       -0.0111
     17 C           4.1808    1.4350    0.0000 C.3     1  UNL1       -0.0486
     18 C           5.9288   14.8770    0.0000 C.2     2  UNL2       -0.0634
     19 C           2.3433    1.4061    0.0000 C.3     1  UNL1       -0.0056
     20 C           7.7288    4.5251    0.0000 C.3     1  UNL1       -0.0253
     21 C           4.1808   11.8078    0.0000 C.3     2  UNL2       -0.0486
     22 C           2.3433   11.7789    0.0000 C.3     2  UNL2       -0.0056
     23 C           6.8228    2.9696    0.0000 C.3     1  UNL1       -0.0429
     24 C           6.8228   15.4117    0.0000 C.3     2  UNL2       -0.0135
     25 C           4.1968    4.5042    0.0000 C.3     1  UNL1       -0.0306
     26 C           7.7288   14.8978    0.0000 C.3     2  UNL2       -0.0255
     27 C           2.3599    3.5615    0.0000 C.3     1  UNL1       -0.0447
     28 C           4.1968   14.8770    0.0000 C.3     2  UNL2       -0.0306
     29 C           6.8228   13.3424    0.0000 C.3     2  UNL2       -0.0429
     30 C           2.3599   13.9343    0.0000 C.3     2  UNL2       -0.0447
     31 C           7.7288    3.4834    0.0000 C.3     1  UNL1       -0.0463
     32 C           5.7056    2.2382    0.0000 C.3     1  UNL1       -0.0585
     33 C           7.7288   13.8562    0.0000 C.3     2  UNL2       -0.0463
     34 C           5.7056   12.6110    0.0000 C.3     2  UNL2       -0.0585
     35 C           5.0628    5.0042    0.0000 C.2     1  UNL1       -0.0836
     36 C           1.4037    1.9486    0.0000 C.3     1  UNL1        0.0606
     37 C           3.2945    3.9974    0.0000 C.3     1  UNL1       -0.0590
     38 C           6.7977    6.1236    0.0000 C.3     1  UNL1       -0.0343
     39 C           5.0628   15.3770    0.0000 C.2     2  UNL2       -0.0836
     40 C           6.2709    2.5646    0.0000 C.3     1  UNL1       -0.0553
     41 C           1.4037   12.3213    0.0000 C.3     2  UNL2        0.0606
     42 C           1.4120    3.0335    0.0000 C.3     1  UNL1       -0.0258
     43 C           3.2945   14.3701    0.0000 C.3     2  UNL2       -0.0590
     44 C           1.4120   13.4063    0.0000 C.3     2  UNL2       -0.0258
     45 C           6.2709   12.9374    0.0000 C.3     2  UNL2       -0.0553
     46 C           6.7977   16.4964    0.0000 C.3     2  UNL2       -0.0408
     47 C           8.6726    5.0603    0.0000 C.3     1  UNL1       -0.0468
     48 C           8.6726   15.4331    0.0000 C.3     2  UNL2       -0.0466
     49 C           7.7288    6.6805    0.0000 C.3     1  UNL1       -0.0407
     50 C           7.7288   17.0533    0.0000 C.3     2  UNL2       -0.0343
     51 C           8.6726    6.1453    0.0000 C.3     1  UNL1       -0.0497
     52 C           1.8467    0.5381    0.0000 C.3     1  UNL1       -0.0572
     53 C           2.8466    0.5420    0.0000 C.3     1  UNL1       -0.0572
     54 C           8.6726   16.5181    0.0000 C.3     2  UNL2       -0.0473
     55 C           8.5987    4.0318    0.0000 C.3     1  UNL1       -0.0590
     56 C           1.8467   10.9109    0.0000 C.3     2  UNL2       -0.0572
     57 C           2.8466   10.9148    0.0000 C.3     2  UNL2       -0.0572
     58 C           8.5987   14.4045    0.0000 C.3     2  UNL2       -0.0590
     59 C           5.9222    6.6068    0.0000 C.3     1  UNL1       -0.0616
     60 C           7.7173    7.6805    0.0000 C.3     1  UNL1       -0.0622
     61 C           8.2188   17.9251    0.0000 C.3     2  UNL2       -0.0598
     62 C           7.2188   17.9135    0.0000 C.3     2  UNL2       -0.0598
     63 H           4.9329    3.9292    0.0000 H       1  UNL1        0.0315
     64 H           4.9329   14.3020    0.0000 H       2  UNL2        0.0315
     65 H           3.2820    1.1058    0.0000 H       1  UNL1        0.0312
     66 H           3.2820   11.4786    0.0000 H       2  UNL2        0.0312
     67 H           5.2969    1.3823    0.0000 H       1  UNL1        0.0271
     68 H           5.6880    2.0782    0.0000 H       1  UNL1        0.0271
     69 H           5.2969   11.7551    0.0000 H       2  UNL2        0.0271
     70 H           5.6880   12.4510    0.0000 H       2  UNL2        0.0271
     71 H           6.0786    5.4496    0.0000 H       1  UNL1        0.0354
     72 H           3.7835    0.9590    0.0000 H       1  UNL1        0.0268
     73 H           4.5818    0.9621    0.0000 H       1  UNL1        0.0268
     74 H           3.7835   11.3318    0.0000 H       2  UNL2        0.0268
     75 H           4.5818   11.3349    0.0000 H       2  UNL2        0.0268
     76 H           6.4182    2.4998    0.0000 H       1  UNL1        0.0274
     77 H           7.2164    2.4906    0.0000 H       1  UNL1        0.0274
     78 H           7.5522   15.8480    0.0000 H       2  UNL2        0.0351
     79 H           3.9847    5.0868    0.0000 H       1  UNL1        0.0310
     80 H           3.5862    4.3966    0.0000 H       1  UNL1        0.0310
     81 H           2.7681    4.0281    0.0000 H       1  UNL1        0.0271
     82 H           1.9700    4.0435    0.0000 H       1  UNL1        0.0271
     83 H           3.9847   15.4596    0.0000 H       2  UNL2        0.0310
     84 H           3.5862   14.7694    0.0000 H       2  UNL2        0.0310
     85 H           6.4182   12.8726    0.0000 H       2  UNL2        0.0274
     86 H           7.2164   12.8633    0.0000 H       2  UNL2        0.0274
     87 H           2.7681   14.4009    0.0000 H       2  UNL2        0.0271
     88 H           1.9700   14.4163    0.0000 H       2  UNL2        0.0271
     89 H           7.9379    2.8997    0.0000 H       1  UNL1        0.0271
     90 H           8.3397    3.5895    0.0000 H       1  UNL1        0.0271
     91 H           5.2306    1.8397    0.0000 H       1  UNL1        0.0235
     92 H           6.1041    1.7632    0.0000 H       1  UNL1        0.0235
     93 H           6.1805    2.6367    0.0000 H       1  UNL1        0.0235
     94 H           7.9379   13.2725    0.0000 H       2  UNL2        0.0271
     95 H           8.3397   13.9623    0.0000 H       2  UNL2        0.0271
     96 H           5.2306   12.2124    0.0000 H       2  UNL2        0.0235
     97 H           6.1041   12.1360    0.0000 H       2  UNL2        0.0235
     98 H           6.1805   13.0095    0.0000 H       2  UNL2        0.0235
     99 H           5.0628    5.6242    0.0000 H       1  UNL1        0.0572
    100 H           1.4020    1.0986    0.0000 H       1  UNL1        0.0599
    101 H           3.9145    3.9926    0.0000 H       1  UNL1        0.0235
    102 H           3.2993    4.6174    0.0000 H       1  UNL1        0.0235
    103 H           2.6745    4.0022    0.0000 H       1  UNL1        0.0235
    104 H           6.0707    5.6831    0.0000 H       1  UNL1        0.0307
    105 H           5.0628   15.9970    0.0000 H       2  UNL2        0.0572
    106 H           5.6884    2.3525    0.0000 H       1  UNL1        0.0238
    107 H           6.4831    1.9820    0.0000 H       1  UNL1        0.0238
    108 H           6.8535    2.7767    0.0000 H       1  UNL1        0.0238
    109 H           1.4020   11.4713    0.0000 H       2  UNL2        0.0599
    110 H           1.2075    3.6188    0.0000 H       1  UNL1        0.0290
    111 H           0.8004    2.9322    0.0000 H       1  UNL1        0.0290
    112 H           3.9145   14.3654    0.0000 H       2  UNL2        0.0235
    113 H           3.2993   14.9901    0.0000 H       2  UNL2        0.0235
    114 H           2.6745   14.3749    0.0000 H       2  UNL2        0.0235
    115 H           1.2075   13.9916    0.0000 H       2  UNL2        0.0290
    116 H           0.8004   13.3049    0.0000 H       2  UNL2        0.0290
    117 H           5.6884   12.7253    0.0000 H       2  UNL2        0.0238
    118 H           6.4831   12.3548    0.0000 H       2  UNL2        0.0238
    119 H           6.8535   13.1495    0.0000 H       2  UNL2        0.0238
    120 H           6.5752   17.0751    0.0000 H       2  UNL2        0.0276
    121 H           6.1894   16.3762    0.0000 H       2  UNL2        0.0276
    122 H           8.8817    4.4766    0.0000 H       1  UNL1        0.0271
    123 H           9.2835    5.1664    0.0000 H       1  UNL1        0.0271
    124 H           8.8817   14.8494    0.0000 H       2  UNL2        0.0271
    125 H           9.2835   15.5392    0.0000 H       2  UNL2        0.0271
    126 H           8.4608    7.1126    0.0000 H       1  UNL1        0.0301
    127 H           9.2835    6.0392    0.0000 H       1  UNL1        0.0268
    128 H           8.8817    6.7290    0.0000 H       1  UNL1        0.0268
    129 H           2.3109    0.2299    0.0000 H       1  UNL1        0.0236
    130 H           1.3085    0.8461    0.0000 H       1  UNL1        0.0236
    131 H           1.5387    0.0000    0.0000 H       1  UNL1        0.0236
    132 H           2.3848    0.2302    0.0000 H       1  UNL1        0.0236
    133 H           3.1587    0.0062    0.0000 H       1  UNL1        0.0236
    134 H           3.3824    0.8540    0.0000 H       1  UNL1        0.0236
    135 H           9.2835   16.4120    0.0000 H       2  UNL2        0.0271
    136 H           8.8817   17.1018    0.0000 H       2  UNL2        0.0271
    137 H           8.2928    3.4924    0.0000 H       1  UNL1        0.0235
    138 H           9.1380    3.7259    0.0000 H       1  UNL1        0.0235
    139 H           8.9045    4.5711    0.0000 H       1  UNL1        0.0235
    140 H           2.3109   10.6027    0.0000 H       2  UNL2        0.0236
    141 H           1.3085   11.2188    0.0000 H       2  UNL2        0.0236
    142 H           3.1587   10.3790    0.0000 H       2  UNL2        0.0236
    143 H           3.3824   11.2268    0.0000 H       2  UNL2        0.0236
    144 H           1.5387   10.3728    0.0000 H       2  UNL2        0.0236
    145 H           2.3848   10.6030    0.0000 H       2  UNL2        0.0236
    146 H           8.2928   13.8652    0.0000 H       2  UNL2        0.0235
    147 H           9.1380   14.0987    0.0000 H       2  UNL2        0.0235
    148 H           8.9045   14.9438    0.0000 H       2  UNL2        0.0235
    149 H           6.2218    7.1496    0.0000 H       1  UNL1        0.0233
    150 H           5.3794    6.9064    0.0000 H       1  UNL1        0.0233
    151 H           5.6226    6.0640    0.0000 H       1  UNL1        0.0233
    152 H           8.3372    7.6876    0.0000 H       1  UNL1        0.0233
    153 H           7.7101    8.3004    0.0000 H       1  UNL1        0.0233
    154 H           7.0973    7.6733    0.0000 H       1  UNL1        0.0233
    155 H           7.7522   18.2297    0.0000 H       2  UNL2        0.0235
    156 H           6.9027   18.4468    0.0000 H       2  UNL2        0.0235
    157 H           6.6855   17.5973    0.0000 H       2  UNL2        0.0235
    158 H           8.7593   17.6213    0.0000 H       2  UNL2        0.0235
    159 H           8.5226   18.4655    0.0000 H       2  UNL2        0.0235
    160 H           7.6783   18.2288    0.0000 H       2  UNL2        0.0235
    161 H           0.0000    1.7640    0.0000 H       1  UNL1        0.2098
    162 H           0.0000   12.1368    0.0000 H       2  UNL2        0.2098
@<TRIPOS>BOND
     1     1    36    1
     2     1   161    1
     3     2    41    1
     4     2   162    1
     5     3     5    1
     6     3     7    1
     7     3    13    1
     8     3    32    1
     9     4     8    1
    10     4    10    1
    11     4    15    1
    12     4    34    1
    13     5     6    1
    14     5    25    1
    15     5    63    1
    16     6    11    1
    17     6    27    1
    18     6    37    1
    19     7    14    1
    20     7    23    1
    21     7    40    1
    22     8     9    1
    23     8    28    1
    24     8    64    1
    25     9    12    1
    26     9    30    1
    27     9    43    1
    28    10    18    1
    29    10    29    1
    30    10    45    1
    31    11    17    1
    32    11    19    1
    33    11    65    1
    34    12    21    1
    35    12    22    1
    36    12    66    1
    37    13    17    1
    38    13    67    1
    39    13    68    1
    40    14    16    1
    41    14    35    2
    42    15    21    1
    43    15    69    1
    44    15    70    1
    45    16    20    1
    46    16    38    1
    47    16    71    1
    48    17    72    1
    49    17    73    1
    50    18    24    1
    51    18    39    2
    52    19    36    1
    53    19    52    1
    54    19    53    1
    55    20    31    1
    56    20    47    1
    57    20    55    1
    58    21    74    1
    59    21    75    1
    60    22    41    1
    61    22    56    1
    62    22    57    1
    63    23    31    1
    64    23    76    1
    65    23    77    1
    66    24    26    1
    67    24    46    1
    68    24    78    1
    69    25    35    1
    70    25    79    1
    71    25    80    1
    72    26    33    1
    73    26    48    1
    74    26    58    1
    75    27    42    1
    76    27    81    1
    77    27    82    1
    78    28    39    1
    79    28    83    1
    80    28    84    1
    81    29    33    1
    82    29    85    1
    83    29    86    1
    84    30    44    1
    85    30    87    1
    86    30    88    1
    87    31    89    1
    88    31    90    1
    89    32    91    1
    90    32    92    1
    91    32    93    1
    92    33    94    1
    93    33    95    1
    94    34    96    1
    95    34    97    1
    96    34    98    1
    97    35    99    1
    98    36    42    1
    99    36   100    1
   100    37   101    1
   101    37   102    1
   102    37   103    1
   103    38    49    1
   104    38    59    1
   105    38   104    1
   106    39   105    1
   107    40   106    1
   108    40   107    1
   109    40   108    1
   110    41    44    1
   111    41   109    1
   112    42   110    1
   113    42   111    1
   114    43   112    1
   115    43   113    1
   116    43   114    1
   117    44   115    1
   118    44   116    1
   119    45   117    1
   120    45   118    1
   121    45   119    1
   122    46    50    1
   123    46   120    1
   124    46   121    1
   125    47    51    1
   126    47   122    1
   127    47   123    1
   128    48    54    1
   129    48   124    1
   130    48   125    1
   131    49    51    1
   132    49    60    1
   133    49   126    1
   134    50    54    1
   135    50    61    1
   136    50    62    1
   137    51   127    1
   138    51   128    1
   139    52   130    1
   140    52   131    1
   141    52   132    1
   142    53   129    1
   143    53   133    1
   144    53   134    1
   145    54   135    1
   146    54   136    1
   147    55   137    1
   148    55   138    1
   149    55   139    1
   150    56   141    1
   151    56   144    1
   152    56   145    1
   153    57   140    1
   154    57   142    1
   155    57   143    1
   156    58   146    1
   157    58   147    1
   158    58   148    1
   159    59   149    1
   160    59   150    1
   161    59   151    1
   162    60   152    1
   163    60   153    1
   164    60   154    1
   165    61   158    1
   166    61   159    1
   167    61   160    1
   168    62   155    1
   169    62   156    1
   170    62   157    1
