@<TRIPOS>MOLECULE
IMPHY000984
 39 41 0 0 0
SMALL
GASTEIGER

@<TRIPOS>ATOM
      1 S           9.4939    0.6300    0.0000 S.O2    1  UNL1        0.0919
      2 O           2.8660    0.7640    0.0000 O.3     1  UNL1       -0.4951
      3 O           8.4939   -1.1020    0.0000 O.2     1  UNL1       -0.2670
      4 O           9.4939    1.6300    0.0000 O.2     1  UNL1       -0.1484
      5 O           9.4939   -0.3700    0.0000 O.2     1  UNL1       -0.1484
      6 N           6.4103   -1.0407    0.0000 N.ar    1  UNL1       -0.3505
      7 N           8.4939    0.6300    0.0000 N.am    1  UNL1       -0.1789
      8 N          10.9939    1.4961    0.0000 N.ar    1  UNL1       -0.2351
      9 C           5.4641    0.2640    0.0000 C.ar    1  UNL1        0.0039
     10 C           5.4641   -0.7360    0.0000 C.ar    1  UNL1        0.0472
     11 C           6.9939   -0.2360    0.0000 C.ar    1  UNL1        0.1043
     12 C           6.4103    0.5687    0.0000 C.ar    1  UNL1       -0.0240
     13 C           4.5981    0.7640    0.0000 C.ar    1  UNL1       -0.0108
     14 C           4.5981   -1.2360    0.0000 C.ar    1  UNL1       -0.0343
     15 C           7.9939   -0.2360    0.0000 C.2     1  UNL1        0.2794
     16 C           3.7320    0.2640    0.0000 C.ar    1  UNL1        0.1208
     17 C           3.7320   -0.7360    0.0000 C.ar    1  UNL1       -0.0180
     18 C          10.4939    0.6300    0.0000 C.ar    1  UNL1        0.1970
     19 C          10.9939   -0.2360    0.0000 C.ar    1  UNL1       -0.0160
     20 C          12.4939    0.6300    0.0000 C.ar    1  UNL1       -0.0322
     21 C          11.9939   -0.2360    0.0000 C.ar    1  UNL1       -0.0541
     22 C          11.9939    1.4961    0.0000 C.ar    1  UNL1        0.0327
     23 C          13.4939    0.6300    0.0000 C.3     1  UNL1       -0.0383
     24 C           2.0000    0.2640    0.0000 C.3     1  UNL1        0.0788
     25 H           6.6029    1.1581    0.0000 H       1  UNL1        0.0646
     26 H           6.6029   -1.6300    0.0000 H       1  UNL1        0.1660
     27 H           4.5981    1.3840    0.0000 H       1  UNL1        0.0661
     28 H           4.5981   -1.8560    0.0000 H       1  UNL1        0.0639
     29 H           8.1839    1.1670    0.0000 H       1  UNL1        0.1770
     30 H           3.1951   -1.0460    0.0000 H       1  UNL1        0.0655
     31 H          10.6839   -0.7729    0.0000 H       1  UNL1        0.0653
     32 H          12.3039   -0.7729    0.0000 H       1  UNL1        0.0622
     33 H          12.3039    2.0330    0.0000 H       1  UNL1        0.0833
     34 H          13.4939    0.0100    0.0000 H       1  UNL1        0.0278
     35 H          14.1139    0.6300    0.0000 H       1  UNL1        0.0278
     36 H          13.4939    1.2500    0.0000 H       1  UNL1        0.0278
     37 H           1.6900    0.8010    0.0000 H       1  UNL1        0.0660
     38 H           1.4631   -0.0460    0.0000 H       1  UNL1        0.0660
     39 H           2.3100   -0.2729    0.0000 H       1  UNL1        0.0660
@<TRIPOS>BOND
     1     1     4    2
     2     1     5    2
     3     1     7    1
     4     1    18    1
     5     2    16    1
     6     2    24    1
     7     3    15    2
     8     6    10   ar
     9     6    11   ar
    10     6    26    1
    11     7    15   am
    12     7    29    1
    13     8    18   ar
    14     8    22   ar
    15     9    10   ar
    16     9    12   ar
    17     9    13   ar
    18    10    14   ar
    19    11    12   ar
    20    11    15    1
    21    12    25    1
    22    13    16   ar
    23    13    27    1
    24    14    17   ar
    25    14    28    1
    26    16    17   ar
    27    17    30    1
    28    18    19   ar
    29    19    21   ar
    30    19    31    1
    31    20    21   ar
    32    20    22   ar
    33    20    23    1
    34    21    32    1
    35    22    33    1
    36    23    34    1
    37    23    35    1
    38    23    36    1
    39    24    37    1
    40    24    38    1
    41    24    39    1
