@<TRIPOS>MOLECULE
IMPHY004106
 57 60 0 0 0
SMALL
GASTEIGER

@<TRIPOS>ATOM
      1 O           8.7939   -1.5950    0.0000 O.3     1  UNL1       -0.4640
      2 O           6.3981   -3.5950    0.0000 O.3     1  UNL1       -0.3868
      3 O           8.5210    0.1603    0.0000 O.2     1  UNL1       -0.2505
      4 O           2.8680   -0.5708    0.0000 O.3     1  UNL1       -0.4914
      5 O           2.8680   -2.6192    0.0000 O.3     1  UNL1       -0.4914
      6 O           4.6660    2.4050    0.0000 O.3     1  UNL1       -0.4913
      7 O           8.1301    2.4050    0.0000 O.3     1  UNL1       -0.4913
      8 O           6.3981    3.4050    0.0000 O.3     1  UNL1       -0.4885
      9 C           7.2641   -2.0950    0.0000 C.3     1  UNL1        0.0372
     10 C           7.2641   -1.0950    0.0000 C.3     1  UNL1        0.0757
     11 C           6.3981   -0.5950    0.0000 C.3     1  UNL1        0.0233
     12 C           6.3981   -2.5950    0.0000 C.3     1  UNL1        0.0872
     13 C           8.2103   -2.3997    0.0000 C.3     1  UNL1        0.0987
     14 C           5.5320   -1.0950    0.0000 C.ar    1  UNL1       -0.0299
     15 C           5.5320   -2.0950    0.0000 C.ar    1  UNL1       -0.0113
     16 C           8.2103   -0.7903    0.0000 C.2     1  UNL1        0.3116
     17 C           6.3981    0.4050    0.0000 C.ar    1  UNL1       -0.0320
     18 C           4.6381   -0.5603    0.0000 C.ar    1  UNL1       -0.0122
     19 C           4.6381   -2.6297    0.0000 C.ar    1  UNL1       -0.0104
     20 C           7.2641    0.9050    0.0000 C.ar    1  UNL1       -0.0123
     21 C           5.5320    0.9050    0.0000 C.ar    1  UNL1       -0.0123
     22 C           3.7320   -1.0742    0.0000 C.ar    1  UNL1        0.1618
     23 C           3.7320   -2.1158    0.0000 C.ar    1  UNL1        0.1618
     24 C           5.5320    1.9050    0.0000 C.ar    1  UNL1        0.1654
     25 C           7.2641    1.9050    0.0000 C.ar    1  UNL1        0.1654
     26 C           6.3981    2.4050    0.0000 C.ar    1  UNL1        0.2035
     27 C           2.0000   -1.0675    0.0000 C.3     1  UNL1        0.0790
     28 C           2.8718   -3.6191    0.0000 C.3     1  UNL1        0.0790
     29 C           4.6660    3.4050    0.0000 C.3     1  UNL1        0.0790
     30 C           8.9962    1.9050    0.0000 C.3     1  UNL1        0.0790
     31 C           7.2641    3.9050    0.0000 C.3     1  UNL1        0.0791
     32 H           7.3540   -2.9402    0.0000 H       1  UNL1        0.0370
     33 H           7.3540   -0.2498    0.0000 H       1  UNL1        0.0427
     34 H           6.9350   -0.2850    0.0000 H       1  UNL1        0.0405
     35 H           6.9350   -2.9050    0.0000 H       1  UNL1        0.0648
     36 H           7.9593   -2.9666    0.0000 H       1  UNL1        0.0701
     37 H           8.7477   -2.7090    0.0000 H       1  UNL1        0.0701
     38 H           4.6453    0.0596    0.0000 H       1  UNL1        0.0658
     39 H           4.6453   -3.2496    0.0000 H       1  UNL1        0.0659
     40 H           6.9350   -3.9050    0.0000 H       1  UNL1        0.2102
     41 H           7.8010    0.5950    0.0000 H       1  UNL1        0.0658
     42 H           4.9951    0.5950    0.0000 H       1  UNL1        0.0658
     43 H           1.6921   -0.5294    0.0000 H       1  UNL1        0.0660
     44 H           1.4619   -1.3754    0.0000 H       1  UNL1        0.0660
     45 H           2.3079   -1.6056    0.0000 H       1  UNL1        0.0660
     46 H           2.2518   -3.6215    0.0000 H       1  UNL1        0.0660
     47 H           2.8742   -4.2391    0.0000 H       1  UNL1        0.0660
     48 H           3.4918   -3.6168    0.0000 H       1  UNL1        0.0660
     49 H           5.2860    3.4050    0.0000 H       1  UNL1        0.0660
     50 H           4.6660    4.0250    0.0000 H       1  UNL1        0.0660
     51 H           4.0460    3.4050    0.0000 H       1  UNL1        0.0660
     52 H           8.6862    1.3681    0.0000 H       1  UNL1        0.0660
     53 H           9.5331    1.5950    0.0000 H       1  UNL1        0.0660
     54 H           9.3062    2.4419    0.0000 H       1  UNL1        0.0660
     55 H           7.5741    3.3681    0.0000 H       1  UNL1        0.0660
     56 H           7.8010    4.2150    0.0000 H       1  UNL1        0.0660
     57 H           6.9541    4.4419    0.0000 H       1  UNL1        0.0660
@<TRIPOS>BOND
     1     1    13    1
     2     1    16    1
     3    12     2    1
     4     2    40    1
     5     3    16    2
     6     4    22    1
     7     4    27    1
     8     5    23    1
     9     5    28    1
    10     6    24    1
    11     6    29    1
    12     7    25    1
    13     7    30    1
    14     8    26    1
    15     8    31    1
    16     9    10    1
    17     9    12    1
    18     9    13    1
    19     9    32    1
    20    10    11    1
    21    10    16    1
    22    10    33    1
    23    11    14    1
    24    11    17    1
    25    11    34    1
    26    12    15    1
    27    12    35    1
    28    13    36    1
    29    13    37    1
    30    14    15   ar
    31    14    18   ar
    32    15    19   ar
    33    17    20   ar
    34    17    21   ar
    35    18    22   ar
    36    18    38    1
    37    19    23   ar
    38    19    39    1
    39    20    25   ar
    40    20    41    1
    41    21    24   ar
    42    21    42    1
    43    22    23   ar
    44    24    26   ar
    45    25    26   ar
    46    27    43    1
    47    27    44    1
    48    27    45    1
    49    28    46    1
    50    28    47    1
    51    28    48    1
    52    29    49    1
    53    29    50    1
    54    29    51    1
    55    30    52    1
    56    30    53    1
    57    30    54    1
    58    31    55    1
    59    31    56    1
    60    31    57    1
