@<TRIPOS>MOLECULE
IMPHY002087
 50 50 0 0 0
SMALL
GASTEIGER

@<TRIPOS>ATOM
      1 S           6.0010   -1.0950    0.0000 S.3     1  UNL1       -0.0728
      2 S           8.5991    0.4050    0.0000 S.O2    1  UNL1        0.2709
      3 O           4.2690   -1.0950    0.0000 O.3     1  UNL1       -0.3549
      4 O           4.2690   -4.0950    0.0000 O.3     1  UNL1       -0.3865
      5 O           2.5369   -3.0950    0.0000 O.3     1  UNL1       -0.3865
      6 O           6.0010   -3.0950    0.0000 O.3     1  UNL1       -0.3857
      7 O           2.5369   -0.0950    0.0000 O.3     1  UNL1       -0.3924
      8 O           7.7331   -0.0950    0.0000 O.2     1  UNL1       -0.2068
      9 O           9.4651    0.9050    0.0000 O.3     1  UNL1       -0.2209
     10 O           9.0991   -0.4610    0.0000 O.2     1  UNL1       -0.1060
     11 O           8.0991    1.2710    0.0000 O.2     1  UNL1       -0.1060
     12 N           6.8671    0.4050    0.0000 N.2     1  UNL1       -0.0483
     13 C           4.2690   -3.0950    0.0000 C.3     1  UNL1        0.1126
     14 C           3.4030   -2.5950    0.0000 C.3     1  UNL1        0.1118
     15 C           5.1350   -2.5950    0.0000 C.3     1  UNL1        0.1192
     16 C           3.4030   -1.5950    0.0000 C.3     1  UNL1        0.1115
     17 C           5.1350   -1.5950    0.0000 C.3     1  UNL1        0.1384
     18 C           2.5369   -1.0950    0.0000 C.3     1  UNL1        0.0730
     19 C           6.0010   -0.0950    0.0000 C.2     1  UNL1        0.1182
     20 C           5.1350    0.4050    0.0000 C.3     1  UNL1       -0.0009
     21 C           5.1350    1.4050    0.0000 C.3     1  UNL1       -0.0470
     22 C           4.2690    1.9050    0.0000 C.3     1  UNL1       -0.0527
     23 C           4.2690    2.9050    0.0000 C.3     1  UNL1       -0.0533
     24 C           3.4030    3.4050    0.0000 C.3     1  UNL1       -0.0559
     25 C           3.4030    4.4050    0.0000 C.3     1  UNL1       -0.0653
     26 H           3.7320   -3.4050    0.0000 H       1  UNL1        0.0647
     27 H           3.4030   -3.2150    0.0000 H       1  UNL1        0.0647
     28 H           5.1350   -3.2150    0.0000 H       1  UNL1        0.0655
     29 H           3.4030   -0.9750    0.0000 H       1  UNL1        0.0646
     30 H           5.1350   -0.9750    0.0000 H       1  UNL1        0.0743
     31 H           1.9264   -0.9873    0.0000 H       1  UNL1        0.0584
     32 H           2.3249   -1.6776    0.0000 H       1  UNL1        0.0584
     33 H           3.7320   -4.4050    0.0000 H       1  UNL1        0.2100
     34 H           2.0000   -2.7850    0.0000 H       1  UNL1        0.2100
     35 H           6.5380   -2.7850    0.0000 H       1  UNL1        0.2100
     36 H           4.5244    0.5127    0.0000 H       1  UNL1        0.0334
     37 H           4.9230   -0.1776    0.0000 H       1  UNL1        0.0334
     38 H           5.7456    1.2973    0.0000 H       1  UNL1        0.0269
     39 H           5.3471    1.9876    0.0000 H       1  UNL1        0.0269
     40 H           3.6584    2.0127    0.0000 H       1  UNL1        0.0265
     41 H           4.0569    1.3224    0.0000 H       1  UNL1        0.0265
     42 H           4.8796    2.7973    0.0000 H       1  UNL1        0.0265
     43 H           4.4810    3.4876    0.0000 H       1  UNL1        0.0265
     44 H           2.0000    0.2150    0.0000 H       1  UNL1        0.2095
     45 H           2.7924    3.5127    0.0000 H       1  UNL1        0.0263
     46 H           3.1909    2.8224    0.0000 H       1  UNL1        0.0263
     47 H           4.0230    4.4050    0.0000 H       1  UNL1        0.0230
     48 H           3.4030    5.0250    0.0000 H       1  UNL1        0.0230
     49 H           2.7830    4.4050    0.0000 H       1  UNL1        0.0230
     50 H          10.0021    0.5950    0.0000 H       1  UNL1        0.2480
@<TRIPOS>BOND
     1    17     1    1
     2     1    19    1
     3     2     8    1
     4     2     9    1
     5     2    10    2
     6     2    11    2
     7     3    16    1
     8     3    17    1
     9    13     4    1
    10     4    33    1
    11    14     5    1
    12     5    34    1
    13    15     6    1
    14     6    35    1
    15     7    18    1
    16     7    44    1
    17     8    12    1
    18     9    50    1
    19    12    19    2
    20    13    14    1
    21    13    15    1
    22    13    26    1
    23    14    16    1
    24    14    27    1
    25    15    17    1
    26    15    28    1
    27    16    18    1
    28    16    29    1
    29    17    30    1
    30    18    31    1
    31    18    32    1
    32    19    20    1
    33    20    21    1
    34    20    36    1
    35    20    37    1
    36    21    22    1
    37    21    38    1
    38    21    39    1
    39    22    23    1
    40    22    40    1
    41    22    41    1
    42    23    24    1
    43    23    42    1
    44    23    43    1
    45    24    25    1
    46    24    45    1
    47    24    46    1
    48    25    47    1
    49    25    48    1
    50    25    49    1
