@<TRIPOS>MOLECULE
IMPHY014531
 74 80 0 0 0
SMALL
GASTEIGER

@<TRIPOS>ATOM
      1 O           5.6273   -4.2338    0.0000 O.3     1  UNL1       -0.3636
      2 O           2.9767   -5.8238    0.0000 O.3     1  UNL1       -0.3602
      3 O           5.6392   -1.1985    0.0000 O.3     1  UNL1       -0.3876
      4 O           3.1286    1.0637    0.0000 O.3     1  UNL1       -0.3850
      5 O           2.1248   -3.2302    0.0000 O.2     1  UNL1       -0.2939
      6 O           5.0051    1.9371    0.0000 O.3     1  UNL1       -0.3823
      7 O           3.0048    3.2528    0.0000 O.3     1  UNL1       -0.4548
      8 O           2.0000    4.6636    0.0000 O.2     1  UNL1       -0.2453
      9 C           4.7610   -3.7333    0.0000 C.3     1  UNL1        0.1107
     10 C           3.8950   -3.2333    0.0000 C.3     1  UNL1        0.0634
     11 C           3.8950   -2.2333    0.0000 C.3     1  UNL1       -0.0205
     12 C           4.7610   -1.7333    0.0000 C.3     1  UNL1       -0.0053
     13 C           5.6270   -3.2333    0.0000 C.3     1  UNL1        0.0898
     14 C           4.7771   -0.6918    0.0000 C.3     1  UNL1        0.0774
     15 C           3.8790   -0.1640    0.0000 C.3     1  UNL1        0.0285
     16 C           5.6270   -2.2333    0.0000 C.3     1  UNL1       -0.0181
     17 C           4.7771   -4.7748    0.0000 C.3     1  UNL1        0.0089
     18 C           2.9850   -1.7265    0.0000 C.3     1  UNL1       -0.0482
     19 C           4.1047    0.8465    0.0000 C.3     1  UNL1        0.1058
     20 C           2.9770   -0.6849    0.0000 C.3     1  UNL1       -0.0420
     21 C           3.8790   -5.3026    0.0000 C.3     1  UNL1        0.0954
     22 C           2.9850   -3.7402    0.0000 C.2     1  UNL1        0.1733
     23 C           5.5501   -0.0029    0.0000 C.3     1  UNL1       -0.0204
     24 C           2.9770   -4.7818    0.0000 C.3     1  UNL1        0.1436
     25 C           5.1354    0.9459    0.0000 C.3     1  UNL1       -0.0179
     26 C           3.0290   -2.7333    0.0000 C.3     1  UNL1       -0.0497
     27 C           2.8956    0.0172    0.0000 C.3     1  UNL1       -0.0542
     28 C           4.0096    1.8420    0.0000 C.3     1  UNL1        0.1293
     29 C           3.9145    2.8374    0.0000 C.3     1  UNL1        0.1380
     30 C           3.0141    1.7468    0.0000 C.3     1  UNL1       -0.0298
     31 C           4.7290    3.4176    0.0000 C.3     1  UNL1        0.0089
     32 C           4.6339    4.4130    0.0000 C.2     1  UNL1       -0.0594
     33 C           2.9097    4.2483    0.0000 C.2     1  UNL1        0.3352
     34 C           3.7242    4.8284    0.0000 C.2     1  UNL1        0.0326
     35 C           5.4484    4.9932    0.0000 C.3     1  UNL1       -0.0429
     36 C           3.6291    5.8238    0.0000 C.3     1  UNL1       -0.0330
     37 H           4.6311   -2.6583    0.0000 H       1  UNL1        0.0315
     38 H           5.5004   -1.3140    0.0000 H       1  UNL1        0.0332
     39 H           6.4770   -3.2332    0.0000 H       1  UNL1        0.0625
     40 H           6.2376   -2.3410    0.0000 H       1  UNL1        0.0295
     41 H           5.8391   -1.6507    0.0000 H       1  UNL1        0.0295
     42 H           4.9951   -5.3552    0.0000 H       1  UNL1        0.0320
     43 H           5.3862   -4.6593    0.0000 H       1  UNL1        0.0320
     44 H           2.3733   -1.6251    0.0000 H       1  UNL1        0.0269
     45 H           2.7804   -2.3117    0.0000 H       1  UNL1        0.0269
     46 H           2.7634   -0.1028    0.0000 H       1  UNL1        0.0272
     47 H           2.3669   -0.7957    0.0000 H       1  UNL1        0.0272
     48 H           4.1912   -5.8383    0.0000 H       1  UNL1        0.0627
     49 H           5.9117   -0.5065    0.0000 H       1  UNL1        0.0294
     50 H           6.0890    0.3037    0.0000 H       1  UNL1        0.0294
     51 H           2.3570   -4.7793    0.0000 H       1  UNL1        0.0702
     52 H           5.7265    1.1331    0.0000 H       1  UNL1        0.0295
     53 H           5.0114    1.5534    0.0000 H       1  UNL1        0.0295
     54 H           3.3390   -2.1964    0.0000 H       1  UNL1        0.0240
     55 H           2.4920   -2.4233    0.0000 H       1  UNL1        0.0240
     56 H           2.7190   -3.2702    0.0000 H       1  UNL1        0.0240
     57 H           3.0080    0.6269    0.0000 H       1  UNL1        0.0237
     58 H           2.2859    0.1296    0.0000 H       1  UNL1        0.0237
     59 H           2.7832   -0.5925    0.0000 H       1  UNL1        0.0237
     60 H           6.1785   -0.8926    0.0000 H       1  UNL1        0.2102
     61 H           2.5784    0.7778    0.0000 H       1  UNL1        0.2103
     62 H           3.2221    2.3444    0.0000 H       1  UNL1        0.0767
     63 H           2.9552    2.3640    0.0000 H       1  UNL1        0.0259
     64 H           2.3970    1.6879    0.0000 H       1  UNL1        0.0259
     65 H           3.0731    1.1297    0.0000 H       1  UNL1        0.0259
     66 H           5.2626    2.5011    0.0000 H       1  UNL1        0.2104
     67 H           4.9955    2.8578    0.0000 H       1  UNL1        0.0347
     68 H           5.3266    3.5828    0.0000 H       1  UNL1        0.0347
     69 H           5.8081    4.4882    0.0000 H       1  UNL1        0.0275
     70 H           5.9534    5.3528    0.0000 H       1  UNL1        0.0275
     71 H           5.0887    5.4982    0.0000 H       1  UNL1        0.0275
     72 H           4.2462    5.8828    0.0000 H       1  UNL1        0.0280
     73 H           3.5701    6.4410    0.0000 H       1  UNL1        0.0280
     74 H           3.0119    5.7649    0.0000 H       1  UNL1        0.0280
@<TRIPOS>BOND
     1     9     1    1
     2     1    13    1
     3    21     2    1
     4    24     2    1
     5    14     3    1
     6     3    60    1
     7    19     4    1
     8     4    61    1
     9     5    22    2
    10    28     6    1
    11     6    66    1
    12     7    29    1
    13     7    33    1
    14     8    33    2
    15     9    10    1
    16     9    13    1
    17     9    17    1
    18    10    11    1
    19    10    22    1
    20    10    26    1
    21    11    12    1
    22    11    18    1
    23    11    37    1
    24    12    14    1
    25    12    16    1
    26    12    38    1
    27    13    16    1
    28    13    39    1
    29    14    15    1
    30    14    23    1
    31    15    19    1
    32    15    20    1
    33    15    27    1
    34    16    40    1
    35    16    41    1
    36    17    21    1
    37    17    42    1
    38    17    43    1
    39    18    20    1
    40    18    44    1
    41    18    45    1
    42    19    25    1
    43    19    28    1
    44    20    46    1
    45    20    47    1
    46    21    24    1
    47    21    48    1
    48    22    24    1
    49    23    25    1
    50    23    49    1
    51    23    50    1
    52    24    51    1
    53    25    52    1
    54    25    53    1
    55    26    54    1
    56    26    55    1
    57    26    56    1
    58    27    57    1
    59    27    58    1
    60    27    59    1
    61    28    29    1
    62    28    30    1
    63    29    31    1
    64    29    62    1
    65    30    63    1
    66    30    64    1
    67    30    65    1
    68    31    32    1
    69    31    67    1
    70    31    68    1
    71    32    34    2
    72    32    35    1
    73    33    34    1
    74    34    36    1
    75    35    69    1
    76    35    70    1
    77    35    71    1
    78    36    72    1
    79    36    73    1
    80    36    74    1
