@<TRIPOS>MOLECULE
IMPHY008787
 34 36 0 0 0
SMALL
GASTEIGER

@<TRIPOS>ATOM
      1 O           4.3198    1.7623    0.0000 O.3     1  UNL1       -0.4943
      2 O           7.8167    1.7623    0.0000 O.3     1  UNL1       -0.5060
      3 O           6.0682    1.7277    0.0000 O.2     1  UNL1       -0.2864
      4 O           6.0682   -2.2723    0.0000 O.2     1  UNL1       -0.2866
      5 O           2.5381   -1.2964    0.0000 O.3     1  UNL1       -0.5066
      6 O          10.4663   -0.7998    0.0000 O.3     1  UNL1       -0.3904
      7 C           6.9343   -0.7723    0.0000 C.ar    1  UNL1        0.0369
      8 C           6.9343    0.2277    0.0000 C.ar    1  UNL1        0.0745
      9 C           5.2022    0.2277    0.0000 C.ar    1  UNL1        0.0750
     10 C           5.2022   -0.7723    0.0000 C.ar    1  UNL1        0.0400
     11 C           6.0682    0.7277    0.0000 C.2     1  UNL1        0.2015
     12 C           6.0682   -1.2723    0.0000 C.2     1  UNL1        0.1949
     13 C           7.8282   -1.3070    0.0000 C.ar    1  UNL1       -0.0446
     14 C           7.8282    0.7624    0.0000 C.ar    1  UNL1        0.1287
     15 C           8.7343   -0.7931    0.0000 C.ar    1  UNL1       -0.0180
     16 C           4.3083    0.7624    0.0000 C.ar    1  UNL1        0.1350
     17 C           4.3083   -1.3070    0.0000 C.ar    1  UNL1       -0.0084
     18 C           8.7343    0.2485    0.0000 C.ar    1  UNL1       -0.0141
     19 C           3.4022    0.2485    0.0000 C.ar    1  UNL1        0.0223
     20 C           3.4022   -0.7931    0.0000 C.ar    1  UNL1        0.1210
     21 C           9.5984   -1.2964    0.0000 C.3     1  UNL1        0.0694
     22 C           3.4597    2.2723    0.0000 C.3     1  UNL1        0.0788
     23 H           7.8210   -1.9269    0.0000 H       1  UNL1        0.0628
     24 H           4.3154   -1.9269    0.0000 H       1  UNL1        0.0661
     25 H           9.2700    0.5606    0.0000 H       1  UNL1        0.0658
     26 H           2.8665    0.5606    0.0000 H       1  UNL1        0.0691
     27 H           9.1980   -1.7698    0.0000 H       1  UNL1        0.0607
     28 H           9.9951   -1.7729    0.0000 H       1  UNL1        0.0607
     29 H           8.3500    2.0785    0.0000 H       1  UNL1        0.2922
     30 H           2.0000   -0.9885    0.0000 H       1  UNL1        0.2921
     31 H           3.7758    2.8056    0.0000 H       1  UNL1        0.0660
     32 H           2.9263    2.5885    0.0000 H       1  UNL1        0.0660
     33 H           3.1435    1.7390    0.0000 H       1  UNL1        0.0660
     34 H          11.0021   -1.1118    0.0000 H       1  UNL1        0.2098
@<TRIPOS>BOND
     1     1    16    1
     2     1    22    1
     3     2    14    1
     4     2    29    1
     5     3    11    2
     6     4    12    2
     7     5    20    1
     8     5    30    1
     9     6    21    1
    10     6    34    1
    11     7     8   ar
    12     7    12    1
    13     7    13   ar
    14     8    11    1
    15     8    14   ar
    16     9    10   ar
    17     9    11    1
    18     9    16   ar
    19    10    12    1
    20    10    17   ar
    21    13    15   ar
    22    13    23    1
    23    14    18   ar
    24    15    18   ar
    25    15    21    1
    26    16    19   ar
    27    17    20   ar
    28    17    24    1
    29    18    25    1
    30    19    20   ar
    31    19    26    1
    32    21    27    1
    33    21    28    1
    34    22    31    1
    35    22    32    1
    36    22    33    1
