@<TRIPOS>MOLECULE
IMPHY008016
 37 42 0 0 0
SMALL
GASTEIGER

@<TRIPOS>ATOM
      1 O           5.4110    0.2615    0.0000 O.3     1  UNL1       -0.4466
      2 O           3.5786    2.9664    0.0000 O.3     1  UNL1       -0.4518
      3 O           2.0000    2.6528    0.0000 O.3     1  UNL1       -0.4526
      4 O           8.1603   -1.5426    0.0000 O.3     1  UNL1       -0.4526
      5 O           8.1603   -3.1521    0.0000 O.3     1  UNL1       -0.4526
      6 O           5.7171    2.0113    0.0000 O.2     1  UNL1       -0.2448
      7 N           3.6820   -1.8265    0.0000 N.ar    1  UNL1       -0.2552
      8 C           4.5996   -0.3128    0.0000 C.3     1  UNL1        0.1714
      9 C           3.8017    0.2801    0.0000 C.ar    1  UNL1        0.0165
     10 C           4.1233    1.2270    0.0000 C.ar    1  UNL1        0.1113
     11 C           4.5880   -1.3127    0.0000 C.ar    1  UNL1        0.0939
     12 C           5.4820   -1.8474    0.0000 C.ar    1  UNL1        0.0111
     13 C           3.4641    1.9790    0.0000 C.ar    1  UNL1        0.1806
     14 C           2.8209    0.0852    0.0000 C.ar    1  UNL1       -0.0502
     15 C           5.1173    1.2112    0.0000 C.2     1  UNL1        0.3442
     16 C           5.4820   -2.8474    0.0000 C.ar    1  UNL1       -0.0109
     17 C           2.4833    1.7841    0.0000 C.ar    1  UNL1        0.1671
     18 C           6.3480   -1.3474    0.0000 C.ar    1  UNL1       -0.0066
     19 C           2.1617    0.8372    0.0000 C.ar    1  UNL1       -0.0157
     20 C           7.2140   -1.8474    0.0000 C.ar    1  UNL1        0.1669
     21 C           6.3480   -3.3474    0.0000 C.ar    1  UNL1       -0.0083
     22 C           7.2140   -2.8474    0.0000 C.ar    1  UNL1        0.1668
     23 C           4.5880   -3.3820    0.0000 C.ar    1  UNL1       -0.0357
     24 C           2.6756    3.3820    0.0000 C.3     1  UNL1        0.2333
     25 C           3.6820   -2.8682    0.0000 C.ar    1  UNL1        0.0286
     26 C           8.7439   -2.3474    0.0000 C.3     1  UNL1        0.2332
     27 H           5.1486   -0.6008    0.0000 H       1  UNL1        0.0853
     28 H           2.6214   -0.5018    0.0000 H       1  UNL1        0.0623
     29 H           6.3480   -0.7273    0.0000 H       1  UNL1        0.0662
     30 H           1.5536    0.7164    0.0000 H       1  UNL1        0.0655
     31 H           6.3480   -3.9674    0.0000 H       1  UNL1        0.0661
     32 H           4.5952   -4.0020    0.0000 H       1  UNL1        0.0639
     33 H           2.9925    3.9149    0.0000 H       1  UNL1        0.1166
     34 H           2.1790    3.7532    0.0000 H       1  UNL1        0.1166
     35 H           3.1463   -3.1802    0.0000 H       1  UNL1        0.0830
     36 H           9.2047   -2.7621    0.0000 H       1  UNL1        0.1166
     37 H           9.2047   -1.9326    0.0000 H       1  UNL1        0.1166
@<TRIPOS>BOND
     1     1     8    1
     2     1    15    1
     3     2    13    1
     4     2    24    1
     5     3    17    1
     6     3    24    1
     7     4    20    1
     8     4    26    1
     9     5    22    1
    10     5    26    1
    11     6    15    2
    12     7    11   ar
    13     7    25   ar
    14     8     9    1
    15     8    11    1
    16     8    27    1
    17     9    10   ar
    18     9    14   ar
    19    10    13   ar
    20    10    15    1
    21    11    12   ar
    22    12    16   ar
    23    12    18   ar
    24    13    17   ar
    25    14    19   ar
    26    14    28    1
    27    16    21   ar
    28    16    23   ar
    29    17    19   ar
    30    18    20   ar
    31    18    29    1
    32    19    30    1
    33    20    22   ar
    34    21    22   ar
    35    21    31    1
    36    23    25   ar
    37    23    32    1
    38    24    33    1
    39    24    34    1
    40    25    35    1
    41    26    36    1
    42    26    37    1
