@<TRIPOS>MOLECULE
IMPHY016291
 50 49 0 0 0
SMALL
GASTEIGER

@<TRIPOS>ATOM
      1 C           2.8660    0.0000    0.0000 C.3     1  UNL1       -0.0377
      2 C           3.7320    0.5000    0.0000 C.3     1  UNL1       -0.0481
      3 C           4.5981    0.0000    0.0000 C.3     1  UNL1       -0.0526
      4 C           5.4641    0.5000    0.0000 C.3     1  UNL1       -0.0530
      5 C           6.3301   -0.0000    0.0000 C.3     1  UNL1       -0.0531
      6 C           7.1962    0.5000    0.0000 C.3     1  UNL1       -0.0531
      7 C           8.0622   -0.0000    0.0000 C.3     1  UNL1       -0.0531
      8 C           8.9282    0.5000    0.0000 C.3     1  UNL1       -0.0531
      9 C           2.0000   -0.5000    0.0000 C.3     1  UNL1       -0.0601
     10 C           2.3660    0.8660    0.0000 C.3     1  UNL1       -0.0601
     11 C           3.3660   -0.8660    0.0000 C.3     1  UNL1       -0.0601
     12 C           9.7942   -0.0000    0.0000 C.3     1  UNL1       -0.0531
     13 C          10.6603    0.5000    0.0000 C.3     1  UNL1       -0.0531
     14 C          11.5263   -0.0000    0.0000 C.3     1  UNL1       -0.0533
     15 C          12.3923    0.5000    0.0000 C.3     1  UNL1       -0.0559
     16 C          13.2583   -0.0000    0.0000 C.3     1  UNL1       -0.0653
     17 H           4.1306    0.9749    0.0000 H       1  UNL1        0.0270
     18 H           3.3335    0.9749    0.0000 H       1  UNL1        0.0270
     19 H           4.1996   -0.4749    0.0000 H       1  UNL1        0.0265
     20 H           4.9966   -0.4749    0.0000 H       1  UNL1        0.0265
     21 H           5.8626    0.9749    0.0000 H       1  UNL1        0.0265
     22 H           5.0656    0.9749    0.0000 H       1  UNL1        0.0265
     23 H           5.9316   -0.4749    0.0000 H       1  UNL1        0.0265
     24 H           6.7287   -0.4749    0.0000 H       1  UNL1        0.0265
     25 H           7.5947    0.9749    0.0000 H       1  UNL1        0.0265
     26 H           6.7976    0.9749    0.0000 H       1  UNL1        0.0265
     27 H           7.6636   -0.4749    0.0000 H       1  UNL1        0.0265
     28 H           8.4607   -0.4749    0.0000 H       1  UNL1        0.0265
     29 H           9.3267    0.9749    0.0000 H       1  UNL1        0.0265
     30 H           8.5297    0.9749    0.0000 H       1  UNL1        0.0265
     31 H           1.6900    0.0369    0.0000 H       1  UNL1        0.0235
     32 H           1.4631   -0.8100    0.0000 H       1  UNL1        0.0235
     33 H           2.3100   -1.0369    0.0000 H       1  UNL1        0.0235
     34 H           2.9030    1.1760    0.0000 H       1  UNL1        0.0235
     35 H           2.0560    1.4030    0.0000 H       1  UNL1        0.0235
     36 H           1.8291    0.5560    0.0000 H       1  UNL1        0.0235
     37 H           2.8291   -1.1760    0.0000 H       1  UNL1        0.0235
     38 H           3.6760   -1.4030    0.0000 H       1  UNL1        0.0235
     39 H           3.9030   -0.5560    0.0000 H       1  UNL1        0.0235
     40 H           9.3957   -0.4749    0.0000 H       1  UNL1        0.0265
     41 H          10.1928   -0.4749    0.0000 H       1  UNL1        0.0265
     42 H          11.0588    0.9749    0.0000 H       1  UNL1        0.0265
     43 H          10.2617    0.9749    0.0000 H       1  UNL1        0.0265
     44 H          11.1278   -0.4749    0.0000 H       1  UNL1        0.0265
     45 H          11.9248   -0.4749    0.0000 H       1  UNL1        0.0265
     46 H          12.7908    0.9749    0.0000 H       1  UNL1        0.0263
     47 H          11.9938    0.9749    0.0000 H       1  UNL1        0.0263
     48 H          12.9483   -0.5369    0.0000 H       1  UNL1        0.0230
     49 H          13.7953   -0.3100    0.0000 H       1  UNL1        0.0230
     50 H          13.5683    0.5369    0.0000 H       1  UNL1        0.0230
@<TRIPOS>BOND
     1     1     2    1
     2     1     9    1
     3     1    10    1
     4     1    11    1
     5     2     3    1
     6     2    17    1
     7     2    18    1
     8     3     4    1
     9     3    19    1
    10     3    20    1
    11     4     5    1
    12     4    21    1
    13     4    22    1
    14     5     6    1
    15     5    23    1
    16     5    24    1
    17     6     7    1
    18     6    25    1
    19     6    26    1
    20     7     8    1
    21     7    27    1
    22     7    28    1
    23     8    12    1
    24     8    29    1
    25     8    30    1
    26     9    31    1
    27     9    32    1
    28     9    33    1
    29    10    34    1
    30    10    35    1
    31    10    36    1
    32    11    37    1
    33    11    38    1
    34    11    39    1
    35    12    13    1
    36    12    40    1
    37    12    41    1
    38    13    14    1
    39    13    42    1
    40    13    43    1
    41    14    15    1
    42    14    44    1
    43    14    45    1
    44    15    16    1
    45    15    46    1
    46    15    47    1
    47    16    48    1
    48    16    49    1
    49    16    50    1
