@<TRIPOS>MOLECULE
IMPHY016497
 75 74 0 0 0
SMALL
GASTEIGER

@<TRIPOS>ATOM
      1 C          10.6603    0.2500    0.0000 C.3     1  UNL1       -0.0531
      2 C           9.7942   -0.2500    0.0000 C.3     1  UNL1       -0.0531
      3 C          11.5263   -0.2500    0.0000 C.3     1  UNL1       -0.0531
      4 C           8.9282    0.2500    0.0000 C.3     1  UNL1       -0.0531
      5 C          12.3923    0.2500    0.0000 C.3     1  UNL1       -0.0531
      6 C           8.0622   -0.2500    0.0000 C.3     1  UNL1       -0.0531
      7 C          13.2583   -0.2500    0.0000 C.3     1  UNL1       -0.0531
      8 C           7.1962    0.2500    0.0000 C.3     1  UNL1       -0.0531
      9 C          14.1244    0.2500    0.0000 C.3     1  UNL1       -0.0531
     10 C           6.3301   -0.2500    0.0000 C.3     1  UNL1       -0.0531
     11 C          14.9904   -0.2500    0.0000 C.3     1  UNL1       -0.0530
     12 C           5.4641    0.2500    0.0000 C.3     1  UNL1       -0.0531
     13 C          15.8564    0.2500    0.0000 C.3     1  UNL1       -0.0528
     14 C           4.5981   -0.2500    0.0000 C.3     1  UNL1       -0.0531
     15 C          16.7224   -0.2500    0.0000 C.3     1  UNL1       -0.0496
     16 C           3.7320    0.2500    0.0000 C.3     1  UNL1       -0.0533
     17 C          17.5885    0.2500    0.0000 C.3     1  UNL1       -0.0348
     18 C           2.8660   -0.2500    0.0000 C.3     1  UNL1       -0.0559
     19 C          18.4545   -0.2500    0.0000 C.2     1  UNL1       -0.0879
     20 C           2.0000    0.2500    0.0000 C.3     1  UNL1       -0.0653
     21 C          19.3205    0.2500    0.0000 C.2     1  UNL1       -0.0879
     22 C          20.1865   -0.2500    0.0000 C.3     1  UNL1       -0.0348
     23 C          21.0526    0.2500    0.0000 C.3     1  UNL1       -0.0499
     24 C          21.9186   -0.2500    0.0000 C.3     1  UNL1       -0.0556
     25 C          22.7846    0.2500    0.0000 C.3     1  UNL1       -0.0653
     26 H          11.0588    0.7249    0.0000 H       1  UNL1        0.0265
     27 H          10.2617    0.7249    0.0000 H       1  UNL1        0.0265
     28 H           9.3957   -0.7249    0.0000 H       1  UNL1        0.0265
     29 H          10.1928   -0.7249    0.0000 H       1  UNL1        0.0265
     30 H          11.1278   -0.7249    0.0000 H       1  UNL1        0.0265
     31 H          11.9248   -0.7249    0.0000 H       1  UNL1        0.0265
     32 H           9.3267    0.7249    0.0000 H       1  UNL1        0.0265
     33 H           8.5297    0.7249    0.0000 H       1  UNL1        0.0265
     34 H          12.7908    0.7249    0.0000 H       1  UNL1        0.0265
     35 H          11.9938    0.7249    0.0000 H       1  UNL1        0.0265
     36 H           7.6636   -0.7249    0.0000 H       1  UNL1        0.0265
     37 H           8.4607   -0.7249    0.0000 H       1  UNL1        0.0265
     38 H          12.8598   -0.7249    0.0000 H       1  UNL1        0.0265
     39 H          13.6569   -0.7249    0.0000 H       1  UNL1        0.0265
     40 H           7.5947    0.7249    0.0000 H       1  UNL1        0.0265
     41 H           6.7976    0.7249    0.0000 H       1  UNL1        0.0265
     42 H          14.5229    0.7249    0.0000 H       1  UNL1        0.0265
     43 H          13.7258    0.7249    0.0000 H       1  UNL1        0.0265
     44 H           5.9316   -0.7249    0.0000 H       1  UNL1        0.0265
     45 H           6.7287   -0.7249    0.0000 H       1  UNL1        0.0265
     46 H          14.5919   -0.7249    0.0000 H       1  UNL1        0.0265
     47 H          15.3889   -0.7249    0.0000 H       1  UNL1        0.0265
     48 H           5.8626    0.7249    0.0000 H       1  UNL1        0.0265
     49 H           5.0656    0.7249    0.0000 H       1  UNL1        0.0265
     50 H          16.2549    0.7249    0.0000 H       1  UNL1        0.0265
     51 H          15.4579    0.7249    0.0000 H       1  UNL1        0.0265
     52 H           4.1996   -0.7249    0.0000 H       1  UNL1        0.0265
     53 H           4.9966   -0.7249    0.0000 H       1  UNL1        0.0265
     54 H          16.3239   -0.7249    0.0000 H       1  UNL1        0.0268
     55 H          17.1210   -0.7249    0.0000 H       1  UNL1        0.0268
     56 H           4.1306    0.7249    0.0000 H       1  UNL1        0.0265
     57 H           3.3335    0.7249    0.0000 H       1  UNL1        0.0265
     58 H          17.9870    0.7249    0.0000 H       1  UNL1        0.0307
     59 H          17.1899    0.7249    0.0000 H       1  UNL1        0.0307
     60 H           2.4675   -0.7249    0.0000 H       1  UNL1        0.0263
     61 H           3.2646   -0.7249    0.0000 H       1  UNL1        0.0263
     62 H          18.4545   -0.8700    0.0000 H       1  UNL1        0.0569
     63 H           2.3100    0.7869    0.0000 H       1  UNL1        0.0230
     64 H           1.4631    0.5600    0.0000 H       1  UNL1        0.0230
     65 H           1.6900   -0.2869    0.0000 H       1  UNL1        0.0230
     66 H          19.3205    0.8700    0.0000 H       1  UNL1        0.0569
     67 H          19.7880   -0.7249    0.0000 H       1  UNL1        0.0307
     68 H          20.5851   -0.7249    0.0000 H       1  UNL1        0.0307
     69 H          21.4511    0.7249    0.0000 H       1  UNL1        0.0268
     70 H          20.6540    0.7249    0.0000 H       1  UNL1        0.0268
     71 H          21.5201   -0.7249    0.0000 H       1  UNL1        0.0263
     72 H          22.3171   -0.7249    0.0000 H       1  UNL1        0.0263
     73 H          23.0946   -0.2869    0.0000 H       1  UNL1        0.0230
     74 H          23.3215    0.5600    0.0000 H       1  UNL1        0.0230
     75 H          22.4746    0.7869    0.0000 H       1  UNL1        0.0230
@<TRIPOS>BOND
     1     1     2    1
     2     1     3    1
     3     1    26    1
     4     1    27    1
     5     2     4    1
     6     2    28    1
     7     2    29    1
     8     3     5    1
     9     3    30    1
    10     3    31    1
    11     4     6    1
    12     4    32    1
    13     4    33    1
    14     5     7    1
    15     5    34    1
    16     5    35    1
    17     6     8    1
    18     6    36    1
    19     6    37    1
    20     7     9    1
    21     7    38    1
    22     7    39    1
    23     8    10    1
    24     8    40    1
    25     8    41    1
    26     9    11    1
    27     9    42    1
    28     9    43    1
    29    10    12    1
    30    10    44    1
    31    10    45    1
    32    11    13    1
    33    11    46    1
    34    11    47    1
    35    12    14    1
    36    12    48    1
    37    12    49    1
    38    13    15    1
    39    13    50    1
    40    13    51    1
    41    14    16    1
    42    14    52    1
    43    14    53    1
    44    15    17    1
    45    15    54    1
    46    15    55    1
    47    16    18    1
    48    16    56    1
    49    16    57    1
    50    17    19    1
    51    17    58    1
    52    17    59    1
    53    18    20    1
    54    18    60    1
    55    18    61    1
    56    19    21    2
    57    19    62    1
    58    20    63    1
    59    20    64    1
    60    20    65    1
    61    21    22    1
    62    21    66    1
    63    22    23    1
    64    22    67    1
    65    22    68    1
    66    23    24    1
    67    23    69    1
    68    23    70    1
    69    24    25    1
    70    24    71    1
    71    24    72    1
    72    25    73    1
    73    25    74    1
    74    25    75    1
