@<TRIPOS>MOLECULE
IMPHY008540
 42 44 0 0 0
SMALL
GASTEIGER

@<TRIPOS>ATOM
      1 O           6.4144   -2.8864    0.0000 O.3     1  UNL1       -0.5059
      2 O           8.1962    0.1723    0.0000 O.3     1  UNL1       -0.5063
      3 O           4.6660   -2.8519    0.0000 O.2     1  UNL1       -0.2864
      4 N           4.6660    0.1481    0.0000 N.ar    1  UNL1       -0.3423
      5 C           5.5321   -0.3519    0.0000 C.ar    1  UNL1        0.0635
      6 C           5.5321   -1.3518    0.0000 C.ar    1  UNL1        0.0876
      7 C           6.4260    0.1828    0.0000 C.ar    1  UNL1        0.0221
      8 C           3.8000   -0.3519    0.0000 C.ar    1  UNL1        0.0529
      9 C           3.8000   -1.3518    0.0000 C.ar    1  UNL1        0.0459
     10 C           4.6660   -1.8518    0.0000 C.ar    1  UNL1        0.2006
     11 C           6.4144    1.1827    0.0000 C.3     1  UNL1       -0.0038
     12 C           6.4260   -1.8865    0.0000 C.ar    1  UNL1        0.1331
     13 C           7.3321   -0.3310    0.0000 C.ar    1  UNL1        0.1258
     14 C           4.6660    1.1482    0.0000 C.3     1  UNL1        0.0124
     15 C           7.3321   -1.3727    0.0000 C.ar    1  UNL1        0.0224
     16 C           2.9061    0.1828    0.0000 C.ar    1  UNL1       -0.0375
     17 C           2.9061   -1.8865    0.0000 C.ar    1  UNL1       -0.0489
     18 C           7.2746    1.6927    0.0000 C.2     1  UNL1       -0.0808
     19 C           2.0000   -0.3310    0.0000 C.ar    1  UNL1       -0.0598
     20 C           2.0000   -1.3727    0.0000 C.ar    1  UNL1       -0.0610
     21 C           7.2631    2.6927    0.0000 C.2     1  UNL1       -0.0793
     22 C           8.1232    3.2026    0.0000 C.3     1  UNL1       -0.0440
     23 C           6.3913    3.1826    0.0000 C.3     1  UNL1       -0.0440
     24 H           6.1957    1.7629    0.0000 H       1  UNL1        0.0357
     25 H           5.8051    1.0680    0.0000 H       1  UNL1        0.0357
     26 H           5.2860    1.1482    0.0000 H       1  UNL1        0.0456
     27 H           4.6660    1.7682    0.0000 H       1  UNL1        0.0456
     28 H           4.0460    1.1482    0.0000 H       1  UNL1        0.0456
     29 H           7.8678   -1.6847    0.0000 H       1  UNL1        0.0691
     30 H           2.9132    0.8028    0.0000 H       1  UNL1        0.0638
     31 H           2.9132   -2.5065    0.0000 H       1  UNL1        0.0625
     32 H           7.8151    1.3889    0.0000 H       1  UNL1        0.0575
     33 H           1.4643   -0.0190    0.0000 H       1  UNL1        0.0618
     34 H           1.4643   -1.6847    0.0000 H       1  UNL1        0.0618
     35 H           6.9478   -3.2026    0.0000 H       1  UNL1        0.2922
     36 H           8.7343   -0.1356    0.0000 H       1  UNL1        0.2921
     37 H           8.4394    2.6693    0.0000 H       1  UNL1        0.0274
     38 H           8.6566    3.5188    0.0000 H       1  UNL1        0.0274
     39 H           6.6951    3.7231    0.0000 H       1  UNL1        0.0274
     40 H           5.8508    3.4864    0.0000 H       1  UNL1        0.0274
     41 H           6.0875    2.6421    0.0000 H       1  UNL1        0.0274
     42 H           7.8071    3.7360    0.0000 H       1  UNL1        0.0274
@<TRIPOS>BOND
     1     1    12    1
     2     1    35    1
     3     2    13    1
     4     2    36    1
     5     3    10    2
     6     4     5   ar
     7     4     8   ar
     8     4    14    1
     9     5     6   ar
    10     5     7   ar
    11     6    10   ar
    12     6    12   ar
    13     7    11    1
    14     7    13   ar
    15     8     9   ar
    16     8    16   ar
    17     9    10   ar
    18     9    17   ar
    19    11    18    1
    20    11    24    1
    21    11    25    1
    22    12    15   ar
    23    13    15   ar
    24    14    26    1
    25    14    27    1
    26    14    28    1
    27    15    29    1
    28    16    19   ar
    29    16    30    1
    30    17    20   ar
    31    17    31    1
    32    18    21    2
    33    18    32    1
    34    19    20   ar
    35    19    33    1
    36    20    34    1
    37    21    22    1
    38    21    23    1
    39    22    37    1
    40    22    38    1
    41    22    42    1
    42    23    39    1
    43    23    40    1
    44    23    41    1
