@<TRIPOS>MOLECULE
IMPHY011339
 25 26 0 0 0
SMALL
GASTEIGER

@<TRIPOS>ATOM
      1 O           4.2181   -1.1119    0.0000 O.3     1  UNL1       -0.3720
      2 O           5.1454   -2.0110    0.0000 O.3     1  UNL1       -0.3849
      3 O           6.3494    1.2969    0.0000 O.3     1  UNL1       -0.3876
      4 O           6.9490   -0.7944    0.0000 O.3     1  UNL1       -0.3865
      5 N           4.4371    1.8026    0.0000 N.3     1  UNL1       -0.2817
      6 C           3.9593   -0.1459    0.0000 C.3     1  UNL1        0.1463
      7 C           3.7004    0.8200    0.0000 C.3     1  UNL1        0.0388
      8 C           5.1803   -1.0116    0.0000 C.3     1  UNL1        0.1255
      9 C           2.5603   -0.6548    0.0000 C.3     1  UNL1       -0.0062
     10 C           2.3015    0.3112    0.0000 C.3     1  UNL1       -0.0310
     11 C           5.7337    0.5089    0.0000 C.3     1  UNL1        0.0989
     12 C           6.0093   -0.4524    0.0000 C.3     1  UNL1        0.1123
     13 H           3.4805    1.6410    0.0000 H       1  UNL1        0.0487
     14 H           5.7226   -1.3122    0.0000 H       1  UNL1        0.0663
     15 H           2.7553   -1.2433    0.0000 H       1  UNL1        0.0308
     16 H           1.9664   -0.8325    0.0000 H       1  UNL1        0.0308
     17 H           1.7076    0.1334    0.0000 H       1  UNL1        0.0282
     18 H           2.1066    0.8997    0.0000 H       1  UNL1        0.0282
     19 H           6.3423    0.3906    0.0000 H       1  UNL1        0.0636
     20 H           6.4628   -0.0296    0.0000 H       1  UNL1        0.0647
     21 H           4.7471    2.3395    0.0000 H       1  UNL1        0.1250
     22 H           3.7797   -1.5503    0.0000 H       1  UNL1        0.2118
     23 H           5.6712   -2.3395    0.0000 H       1  UNL1        0.2101
     24 H           6.9633    1.2106    0.0000 H       1  UNL1        0.2100
     25 H           7.4240   -0.3959    0.0000 H       1  UNL1        0.2100
@<TRIPOS>BOND
     1     6     1    1
     2     1    22    1
     3     8     2    1
     4     2    23    1
     5    11     3    1
     6     3    24    1
     7    12     4    1
     8     4    25    1
     9     5     6    1
    10     5     7    1
    11     5    21    1
    12     6     8    1
    13     6     9    1
    14     7    10    1
    15     7    11    1
    16     7    13    1
    17     8    12    1
    18     8    14    1
    19     9    10    1
    20     9    15    1
    21     9    16    1
    22    10    17    1
    23    10    18    1
    24    11    12    1
    25    11    19    1
    26    12    20    1
