@<TRIPOS>MOLECULE
IMPHY015448
 46 48 0 0 0
SMALL
GASTEIGER

@<TRIPOS>ATOM
      1 O           6.4421    0.6754    0.0000 O.2     1  UNL1       -0.4934
      2 C           3.8000    0.1686    0.0000 C.3     1  UNL1       -0.0223
      3 C           3.8000   -0.8314    0.0000 C.3     1  UNL1       -0.0300
      4 C           4.6660    0.6686    0.0000 C.3     1  UNL1        0.0052
      5 C           2.9061   -1.3661    0.0000 C.3     1  UNL1       -0.0315
      6 C           2.9061    0.7032    0.0000 C.3     1  UNL1       -0.0470
      7 C           4.6660   -1.3314    0.0000 C.3     1  UNL1       -0.0459
      8 C           5.5321    0.1686    0.0000 C.3     1  UNL1        0.1033
      9 C           2.0000   -0.8522    0.0000 C.3     1  UNL1       -0.0476
     10 C           5.5321   -0.8314    0.0000 C.3     1  UNL1       -0.0152
     11 C           2.0000    0.1894    0.0000 C.3     1  UNL1       -0.0521
     12 C           3.8000    1.1686    0.0000 C.3     1  UNL1       -0.0589
     13 C           4.6500    1.7101    0.0000 C.3     1  UNL1       -0.0247
     14 C           2.4161   -2.2378    0.0000 C.3     1  UNL1       -0.0595
     15 C           3.4160   -2.2263    0.0000 C.3     1  UNL1       -0.0595
     16 C           5.5480    2.2378    0.0000 C.2     1  UNL1       -0.0463
     17 C           6.4501    1.7170    0.0000 C.2     1  UNL1        0.0912
     18 C           7.3180    2.2137    0.0000 C.3     1  UNL1       -0.0072
     19 H           3.8048   -1.4514    0.0000 H       1  UNL1        0.0311
     20 H           5.2006    0.9827    0.0000 H       1  UNL1        0.0345
     21 H           3.3107    1.1730    0.0000 H       1  UNL1        0.0271
     22 H           2.5124    1.1822    0.0000 H       1  UNL1        0.0271
     23 H           4.2675   -1.8064    0.0000 H       1  UNL1        0.0269
     24 H           5.0646   -1.8064    0.0000 H       1  UNL1        0.0269
     25 H           6.0666   -0.1456    0.0000 H       1  UNL1        0.0736
     26 H           1.3891   -0.7461    0.0000 H       1  UNL1        0.0271
     27 H           1.7909   -1.4359    0.0000 H       1  UNL1        0.0271
     28 H           5.7441   -1.4140    0.0000 H       1  UNL1        0.0301
     29 H           6.1426   -0.7238    0.0000 H       1  UNL1        0.0301
     30 H           1.7909    0.7731    0.0000 H       1  UNL1        0.0266
     31 H           1.3891    0.0833    0.0000 H       1  UNL1        0.0266
     32 H           4.4200    1.1686    0.0000 H       1  UNL1        0.0235
     33 H           3.8000    1.7886    0.0000 H       1  UNL1        0.0235
     34 H           3.1800    1.1686    0.0000 H       1  UNL1        0.0235
     35 H           4.4319    2.2905    0.0000 H       1  UNL1        0.0312
     36 H           4.0408    1.5946    0.0000 H       1  UNL1        0.0312
     37 H           1.8756   -1.9341    0.0000 H       1  UNL1        0.0235
     38 H           2.1123   -2.7783    0.0000 H       1  UNL1        0.0235
     39 H           2.9566   -2.5416    0.0000 H       1  UNL1        0.0235
     40 H           2.8827   -2.5425    0.0000 H       1  UNL1        0.0235
     41 H           3.7322   -2.7596    0.0000 H       1  UNL1        0.0235
     42 H           3.9494   -1.9101    0.0000 H       1  UNL1        0.0235
     43 H           5.5456    2.8578    0.0000 H       1  UNL1        0.0605
     44 H           7.6260    1.6756    0.0000 H       1  UNL1        0.0307
     45 H           7.8562    2.5216    0.0000 H       1  UNL1        0.0307
     46 H           7.0101    2.7518    0.0000 H       1  UNL1        0.0307
@<TRIPOS>BOND
     1     1     8    1
     2     1    17    1
     3     2     3    1
     4     2     4    1
     5     2     6    1
     6     2    12    1
     7     3     5    1
     8     3     7    1
     9     3    19    1
    10     4     8    1
    11     4    13    1
    12     4    20    1
    13     5     9    1
    14     5    14    1
    15     5    15    1
    16     6    11    1
    17     6    21    1
    18     6    22    1
    19     7    10    1
    20     7    23    1
    21     7    24    1
    22     8    10    1
    23     8    25    1
    24     9    11    1
    25     9    26    1
    26     9    27    1
    27    10    28    1
    28    10    29    1
    29    11    30    1
    30    11    31    1
    31    12    32    1
    32    12    33    1
    33    12    34    1
    34    13    16    1
    35    13    35    1
    36    13    36    1
    37    14    37    1
    38    14    38    1
    39    14    39    1
    40    15    40    1
    41    15    41    1
    42    15    42    1
    43    16    17    2
    44    16    43    1
    45    17    18    1
    46    18    44    1
    47    18    45    1
    48    18    46    1
