@<TRIPOS>MOLECULE
IMPHY004049
 40 42 0 0 0
SMALL
GASTEIGER

@<TRIPOS>ATOM
      1 O           4.6342   -2.8014    0.0000 O.3     1  UNL1       -0.3907
      2 C           3.1197    1.8616    0.0000 C.3     1  UNL1       -0.0202
      3 C           2.5458    1.4416    0.0000 C.3     1  UNL1       -0.0312
      4 C           2.9343    2.6348    0.0000 C.3     1  UNL1       -0.0312
      5 C           3.7704    1.6990    0.0000 C.3     1  UNL1       -0.0230
      6 C           4.6301    2.0243    0.0000 C.3     1  UNL1       -0.0346
      7 C           3.9285    2.7681    0.0000 C.3     1  UNL1       -0.0461
      8 C           3.9285    1.0632    0.0000 C.3     1  UNL1       -0.0461
      9 C           3.3668    2.9848    0.0000 C.3     1  UNL1       -0.0585
     10 C           4.6362    1.1986    0.0000 C.3     1  UNL1       -0.0434
     11 C           4.4788    2.6049    0.0000 C.3     1  UNL1       -0.0588
     12 C           4.6357    0.1986    0.0000 C.3     1  UNL1       -0.0339
     13 C           5.5015   -0.3018    0.0000 C.2     1  UNL1       -0.0829
     14 C           5.5010   -1.3018    0.0000 C.2     1  UNL1       -0.0515
     15 C           4.6347   -1.8014    0.0000 C.3     1  UNL1        0.0650
     16 C           6.3668   -1.8022    0.0000 C.3     1  UNL1       -0.0416
     17 H           1.7975    1.0383    0.0000 H       1  UNL1        0.0309
     18 H           2.3902    3.2878    0.0000 H       1  UNL1        0.0309
     19 H           5.2488    2.0633    0.0000 H       1  UNL1        0.0306
     20 H           4.4575    3.0914    0.0000 H       1  UNL1        0.0271
     21 H           3.7212    3.3524    0.0000 H       1  UNL1        0.0271
     22 H           3.6938    0.4894    0.0000 H       1  UNL1        0.0271
     23 H           4.4698    0.7609    0.0000 H       1  UNL1        0.0271
     24 H           3.9724    2.8515    0.0000 H       1  UNL1        0.0235
     25 H           3.5001    3.5903    0.0000 H       1  UNL1        0.0235
     26 H           2.7613    3.1180    0.0000 H       1  UNL1        0.0235
     27 H           5.2467    1.0907    0.0000 H       1  UNL1        0.0274
     28 H           4.8485    1.7811    0.0000 H       1  UNL1        0.0274
     29 H           4.9672    2.2230    0.0000 H       1  UNL1        0.0235
     30 H           4.8608    3.0933    0.0000 H       1  UNL1        0.0235
     31 H           3.9904    2.9869    0.0000 H       1  UNL1        0.0235
     32 H           4.0252    0.3066    0.0000 H       1  UNL1        0.0308
     33 H           4.4233   -0.3839    0.0000 H       1  UNL1        0.0308
     34 H           6.0385    0.0080    0.0000 H       1  UNL1        0.0572
     35 H           4.4229   -1.2187    0.0000 H       1  UNL1        0.0604
     36 H           4.0241   -1.9087    0.0000 H       1  UNL1        0.0604
     37 H           6.0565   -2.3390    0.0000 H       1  UNL1        0.0275
     38 H           6.9036   -2.1125    0.0000 H       1  UNL1        0.0275
     39 H           6.6770   -1.2654    0.0000 H       1  UNL1        0.0275
     40 H           4.0972   -3.1111    0.0000 H       1  UNL1        0.2098
@<TRIPOS>BOND
     1     1    15    1
     2     1    40    1
     3     2     3    1
     4     2     4    1
     5     2     5    1
     6     2     9    1
     7     3     4    1
     8     3     8    1
     9     3    17    1
    10     4     7    1
    11     4    18    1
    12     5     6    1
    13     5    10    1
    14     5    11    1
    15     6     7    1
    16     6     8    1
    17     6    19    1
    18     7    20    1
    19     7    21    1
    20     8    22    1
    21     8    23    1
    22     9    24    1
    23     9    25    1
    24     9    26    1
    25    10    12    1
    26    10    27    1
    27    10    28    1
    28    11    29    1
    29    11    30    1
    30    11    31    1
    31    12    13    1
    32    12    32    1
    33    12    33    1
    34    13    14    2
    35    13    34    1
    36    14    15    1
    37    14    16    1
    38    15    35    1
    39    15    36    1
    40    16    37    1
    41    16    38    1
    42    16    39    1
