@<TRIPOS>MOLECULE
IMPHY010740
 36 40 0 0 0
SMALL
GASTEIGER

@<TRIPOS>ATOM
      1 C           9.0384   -1.1285    0.0000 C.3     1  UNL1       -0.0003
      2 C           7.9099   -1.7690    0.0000 C.3     1  UNL1       -0.0035
      3 C           7.9099   -3.0806    0.0000 C.3     1  UNL1       -0.0105
      4 C           9.0384   -3.7414    0.0000 C.3     1  UNL1       -0.0029
      5 C          10.1669   -3.0806    0.0000 C.3     1  UNL1       -0.0003
      6 C          10.1669   -1.7690    0.0000 C.3     1  UNL1       -0.0000
      7 C           6.7712   -3.7414    0.0000 C.3     1  UNL1        0.0784
      8 C           6.7712   -5.0428    0.0000 C.3     1  UNL1        0.0049
      9 C           5.6426   -5.6833    0.0000 C.3     1  UNL1       -0.0185
     10 C           4.5141   -5.0428    0.0000 C.3     1  UNL1        0.0002
     11 C           3.3958   -5.6833    0.0000 C.3     1  UNL1       -0.0181
     12 C           3.3958   -6.9948    0.0000 C.3     1  UNL1        0.0032
     13 C           4.5141   -7.6557    0.0000 C.3     1  UNL1       -0.0002
     14 C           5.6426   -6.9948    0.0000 C.3     1  UNL1       -0.0039
     15 C           9.0384   -5.0428    0.0000 C.3     1  UNL1       -0.0003
     16 C           7.9099   -5.6833    0.0000 C.3     1  UNL1        0.0002
     17 C           5.6426   -3.0806    0.0000 C.2     1  UNL1        0.1520
     18 C           4.5141   -3.7414    0.0000 C.3     1  UNL1        0.0640
     19 C           2.2571   -5.0428    0.0000 C.3     1  UNL1        0.0038
     20 C           1.1285   -5.6833    0.0000 C.3     1  UNL1        0.0642
     21 C           1.1285   -6.9948    0.0000 C.2     1  UNL1        0.1502
     22 C           2.2571   -7.6557    0.0000 C.3     1  UNL1        0.0573
     23 C           8.3877    0.0000    0.0000 C.3     1  UNL1       -0.0000
     24 C           9.6993    0.0000    0.0000 C.3     1  UNL1       -0.0000
     25 C          10.1669   -4.3819    0.0000 C.3     1  UNL1       -0.0003
     26 C           6.8118   -1.5759    0.0000 C.3     1  UNL1        0.1885
     27 O           5.6935   -0.9049    0.0000 O.3     1  UNL1       -0.2200
     28 C           6.8118   -6.3848    0.0000 C.3     1  UNL1        0.0002
     29 C           4.5141   -6.3747    0.0000 C.3     1  UNL1       -0.0002
     30 C           3.3958   -8.2962    0.0000 C.3     1  UNL1        0.0001
     31 O           5.6426   -1.7690    0.0000 O.2     1  UNL1       -0.2960
     32 O           0.0000   -7.6557    0.0000 O.2     1  UNL1       -0.2961
     33 C           2.2571   -8.9571    0.0000 C.3     1  UNL1        0.0077
     34 H           3.3958   -4.3819    0.0000 H       1  UNL1        0.0319
     35 H           5.6426   -4.3209    0.0000 H       1  UNL1        0.0319
     36 H           7.9709   -4.4124    0.0000 H       1  UNL1        0.0323
@<TRIPOS>BOND
     1     1     6    1
     2     1     2    1
     3     1    23    1
     4     1    24    1
     5     2     3    1
     6     3     7    1
     7     3     4    1
     8     3    36    1
     9     4    15    1
    10     4     5    1
    11     4    25    1
    12     5     6    1
    13     7    17    1
    14     7     8    1
    15     7    26    1
    16     8     9    1
    17     8    16    1
    18     8    28    1
    19     9    14    1
    20     9    10    1
    21     9    35    1
    22    10    11    1
    23    10    18    1
    24    10    29    1
    25    11    19    1
    26    11    12    1
    27    11    34    1
    28    12    22    1
    29    12    13    1
    30    12    30    1
    31    13    14    1
    32    15    16    1
    33    17    18    1
    34    17    31    2
    35    19    20    1
    36    20    21    1
    37    21    22    1
    38    21    32    2
    39    22    33    1
    40    26    27    1
