@<TRIPOS>MOLECULE
IMPHY009305
 39 39 0 0 0
SMALL
GASTEIGER

@<TRIPOS>ATOM
      1 O           6.3301    0.5600    0.0000 O.3     1  UNL1       -0.4500
      2 O           3.7320    0.0600    0.0000 O.3     1  UNL1       -0.4532
      3 O           7.1962    0.0600    0.0000 O.3     1  UNL1       -0.3878
      4 O           7.1962    2.0600    0.0000 O.2     1  UNL1       -0.2456
      5 O           2.8660    1.5600    0.0000 O.2     1  UNL1       -0.2511
      6 C           8.0622   -1.4400    0.0000 C.3     1  UNL1       -0.0233
      7 C           5.4641    0.0600    0.0000 C.3     1  UNL1        0.1619
      8 C           7.1962   -0.9400    0.0000 C.3     1  UNL1        0.0735
      9 C           8.9282   -0.9400    0.0000 C.3     1  UNL1       -0.0507
     10 C           4.5981    0.5600    0.0000 C.3     1  UNL1        0.1620
     11 C           5.4641   -0.9400    0.0000 C.2     1  UNL1       -0.0416
     12 C           6.3301   -1.4400    0.0000 C.2     1  UNL1       -0.0563
     13 C           9.7942   -1.4400    0.0000 C.3     1  UNL1       -0.0558
     14 C           4.5981    1.5600    0.0000 C.2     1  UNL1       -0.0333
     15 C          10.6603   -0.9400    0.0000 C.3     1  UNL1       -0.0653
     16 C           5.4641    2.0600    0.0000 C.2     1  UNL1        0.0222
     17 C           6.3301    1.5600    0.0000 C.2     1  UNL1        0.3324
     18 C           2.8660    0.5600    0.0000 C.2     1  UNL1        0.3046
     19 C           2.0000    0.0600    0.0000 C.3     1  UNL1        0.0333
     20 H           7.6636   -1.9150    0.0000 H       1  UNL1        0.0293
     21 H           8.4607   -1.9150    0.0000 H       1  UNL1        0.0293
     22 H           6.0010   -0.2500    0.0000 H       1  UNL1        0.0821
     23 H           6.6592   -0.6300    0.0000 H       1  UNL1        0.0637
     24 H           9.3267   -0.4651    0.0000 H       1  UNL1        0.0266
     25 H           8.5297   -0.4651    0.0000 H       1  UNL1        0.0266
     26 H           4.5981   -0.0600    0.0000 H       1  UNL1        0.0821
     27 H           4.9272   -1.2500    0.0000 H       1  UNL1        0.0607
     28 H           6.3301   -2.0600    0.0000 H       1  UNL1        0.0595
     29 H           9.3957   -1.9150    0.0000 H       1  UNL1        0.0263
     30 H          10.1928   -1.9150    0.0000 H       1  UNL1        0.0263
     31 H           4.0611    1.8700    0.0000 H       1  UNL1        0.0612
     32 H          10.9703   -1.4769    0.0000 H       1  UNL1        0.0230
     33 H          11.1972   -0.6300    0.0000 H       1  UNL1        0.0230
     34 H          10.3503   -0.4031    0.0000 H       1  UNL1        0.0230
     35 H           5.4641    2.6800    0.0000 H       1  UNL1        0.0687
     36 H           7.7331    0.3700    0.0000 H       1  UNL1        0.2102
     37 H           1.6900    0.5969    0.0000 H       1  UNL1        0.0342
     38 H           1.4631   -0.2500    0.0000 H       1  UNL1        0.0342
     39 H           2.3100   -0.4769    0.0000 H       1  UNL1        0.0342
@<TRIPOS>BOND
     1     1     7    1
     2     1    17    1
     3    10     2    1
     4     2    18    1
     5     8     3    1
     6     3    36    1
     7     4    17    2
     8     5    18    2
     9     6     8    1
    10     6     9    1
    11     6    20    1
    12     6    21    1
    13     7    10    1
    14     7    11    1
    15     7    22    1
    16     8    12    1
    17     8    23    1
    18     9    13    1
    19     9    24    1
    20     9    25    1
    21    10    14    1
    22    10    26    1
    23    11    12    2
    24    11    27    1
    25    12    28    1
    26    13    15    1
    27    13    29    1
    28    13    30    1
    29    14    16    2
    30    14    31    1
    31    15    32    1
    32    15    33    1
    33    15    34    1
    34    16    17    1
    35    16    35    1
    36    18    19    1
    37    19    37    1
    38    19    38    1
    39    19    39    1
