@<TRIPOS>MOLECULE
IMPHY004737
 49 51 0 0 0
SMALL
GASTEIGER

@<TRIPOS>ATOM
      1 O           6.0682   -3.2327    0.0000 O.3     1  UNL1       -0.4910
      2 O           6.9343    0.2673    0.0000 O.3     1  UNL1       -0.4944
      3 O          10.3984    0.2673    0.0000 O.3     1  UNL1       -0.5064
      4 O           2.5381   -3.2568    0.0000 O.3     1  UNL1       -0.5066
      5 C           6.9343   -1.7327    0.0000 C.3     1  UNL1        0.0258
      6 C           6.0682   -1.2327    0.0000 C.3     1  UNL1       -0.0142
      7 C           6.9343   -2.7327    0.0000 C.3     1  UNL1        0.0968
      8 C           7.8003   -1.2327    0.0000 C.ar    1  UNL1        0.0014
      9 C           5.2022   -1.7327    0.0000 C.ar    1  UNL1       -0.0048
     10 C           5.2022   -2.7327    0.0000 C.ar    1  UNL1        0.1272
     11 C           7.8003   -0.2327    0.0000 C.ar    1  UNL1        0.1306
     12 C           8.6663   -1.7327    0.0000 C.ar    1  UNL1       -0.0513
     13 C           8.6663    0.2673    0.0000 C.ar    1  UNL1        0.0396
     14 C           4.3083   -1.1980    0.0000 C.ar    1  UNL1       -0.0516
     15 C           9.5323   -0.2327    0.0000 C.ar    1  UNL1        0.1238
     16 C           4.3083   -3.2673    0.0000 C.ar    1  UNL1        0.0218
     17 C           9.5323   -1.2327    0.0000 C.ar    1  UNL1       -0.0194
     18 C           8.6663    1.2673    0.0000 C.3     1  UNL1       -0.0023
     19 C           3.4022   -1.7118    0.0000 C.ar    1  UNL1       -0.0197
     20 C           3.4022   -2.7535    0.0000 C.ar    1  UNL1        0.1203
     21 C           9.5323    1.7673    0.0000 C.2     1  UNL1       -0.0807
     22 C           6.9343    1.2673    0.0000 C.3     1  UNL1        0.0788
     23 C           9.5323    2.7673    0.0000 C.2     1  UNL1       -0.0793
     24 C          10.3984    3.2673    0.0000 C.3     1  UNL1       -0.0440
     25 C           8.6663    3.2673    0.0000 C.3     1  UNL1       -0.0440
     26 H           6.9343   -1.1127    0.0000 H       1  UNL1        0.0386
     27 H           6.4668   -0.7577    0.0000 H       1  UNL1        0.0321
     28 H           5.6697   -0.7577    0.0000 H       1  UNL1        0.0321
     29 H           7.1463   -3.3153    0.0000 H       1  UNL1        0.0703
     30 H           7.5449   -2.6250    0.0000 H       1  UNL1        0.0703
     31 H           8.6663   -2.3527    0.0000 H       1  UNL1        0.0623
     32 H           4.3154   -0.5780    0.0000 H       1  UNL1        0.0623
     33 H           4.3154   -3.8873    0.0000 H       1  UNL1        0.0691
     34 H          10.0693   -1.5427    0.0000 H       1  UNL1        0.0654
     35 H           8.4543    1.8499    0.0000 H       1  UNL1        0.0358
     36 H           8.0558    1.1597    0.0000 H       1  UNL1        0.0358
     37 H           2.8665   -1.3998    0.0000 H       1  UNL1        0.0654
     38 H          10.0693    1.4573    0.0000 H       1  UNL1        0.0575
     39 H           7.5543    1.2673    0.0000 H       1  UNL1        0.0660
     40 H           6.9343    1.8873    0.0000 H       1  UNL1        0.0660
     41 H           6.3143    1.2673    0.0000 H       1  UNL1        0.0660
     42 H          10.9353   -0.0427    0.0000 H       1  UNL1        0.2921
     43 H           2.0000   -2.9489    0.0000 H       1  UNL1        0.2921
     44 H          10.7084    2.7304    0.0000 H       1  UNL1        0.0274
     45 H           8.9763    3.8043    0.0000 H       1  UNL1        0.0274
     46 H           8.1294    3.5773    0.0000 H       1  UNL1        0.0274
     47 H           8.3563    2.7304    0.0000 H       1  UNL1        0.0274
     48 H          10.9353    3.5773    0.0000 H       1  UNL1        0.0274
     49 H          10.0884    3.8043    0.0000 H       1  UNL1        0.0274
@<TRIPOS>BOND
     1     1     7    1
     2     1    10    1
     3     2    11    1
     4     2    22    1
     5     3    15    1
     6     3    42    1
     7     4    20    1
     8     4    43    1
     9     5     6    1
    10     5     7    1
    11     5     8    1
    12     5    26    1
    13     6     9    1
    14     6    27    1
    15     6    28    1
    16     7    29    1
    17     7    30    1
    18     8    11   ar
    19     8    12   ar
    20     9    10   ar
    21     9    14   ar
    22    10    16   ar
    23    11    13   ar
    24    12    17   ar
    25    12    31    1
    26    13    15   ar
    27    13    18    1
    28    14    19   ar
    29    14    32    1
    30    15    17   ar
    31    16    20   ar
    32    16    33    1
    33    17    34    1
    34    18    21    1
    35    18    35    1
    36    18    36    1
    37    19    20   ar
    38    19    37    1
    39    21    23    2
    40    21    38    1
    41    22    39    1
    42    22    40    1
    43    22    41    1
    44    23    24    1
    45    23    25    1
    46    24    44    1
    47    24    48    1
    48    24    49    1
    49    25    45    1
    50    25    46    1
    51    25    47    1
