@<TRIPOS>MOLECULE
IMPHY007874
 140 147 0 0 0
SMALL
GASTEIGER

@<TRIPOS>ATOM
      1 O          11.1384   -1.2343    0.0000 O.3     1  UNL1       -0.3449
      2 O           6.4053    4.7248    0.0000 O.3     1  UNL1       -0.3906
      3 O           3.9791    4.9243    0.0000 O.3     1  UNL1       -0.4802
      4 O           5.1820    5.3779    0.0000 O.2     1  UNL1       -0.2503
      5 O          12.0044    0.2657    0.0000 O.3     1  UNL1       -0.3461
      6 O          12.8705   -2.2343    0.0000 O.3     1  UNL1       -0.3378
      7 O          14.6025   -1.2343    0.0000 O.3     1  UNL1       -0.3401
      8 O          14.6025    0.7657    0.0000 O.3     1  UNL1       -0.3868
      9 O          11.1384   -2.2343    0.0000 O.3     1  UNL1       -0.3431
     10 O          15.4685    0.2657    0.0000 O.3     1  UNL1       -0.3405
     11 O          12.8705   -4.2343    0.0000 O.3     1  UNL1       -0.3841
     12 O          16.3346   -2.2343    0.0000 O.3     1  UNL1       -0.3841
     13 O          11.1384   -5.2343    0.0000 O.3     1  UNL1       -0.3864
     14 O           9.4064   -4.2343    0.0000 O.3     1  UNL1       -0.3866
     15 O          18.0666   -1.2343    0.0000 O.3     1  UNL1       -0.3864
     16 O          18.0666    0.7657    0.0000 O.3     1  UNL1       -0.3865
     17 O          15.4685    2.2657    0.0000 O.3     1  UNL1       -0.3924
     18 C           7.5184    1.8962    0.0000 C.3     1  UNL1       -0.0193
     19 C           7.5223    0.8962    0.0000 C.3     1  UNL1       -0.0257
     20 C           8.4183    0.3650    0.0000 C.3     1  UNL1       -0.0250
     21 C           6.6505    2.3928    0.0000 C.3     1  UNL1       -0.0028
     22 C           9.3224    0.8823    0.0000 C.3     1  UNL1       -0.0278
     23 C           8.4103    2.4343    0.0000 C.3     1  UNL1       -0.0463
     24 C           9.3184    1.9240    0.0000 C.3     1  UNL1       -0.0486
     25 C          10.2682    0.3507    0.0000 C.3     1  UNL1       -0.0052
     26 C           5.7864    1.8895    0.0000 C.2     1  UNL1       -0.0627
     27 C           4.8745    2.3928    0.0000 C.3     1  UNL1       -0.0007
     28 C           6.6582    0.3929    0.0000 C.3     1  UNL1       -0.0306
     29 C           8.3974   -0.7198    0.0000 C.3     1  UNL1       -0.0447
     30 C           6.6625    3.4344    0.0000 C.3     1  UNL1       -0.0162
     31 C           4.8624    3.4344    0.0000 C.3     1  UNL1        0.0998
     32 C           5.7625    3.9587    0.0000 C.3     1  UNL1        0.0723
     33 C           7.8568    2.8372    0.0000 C.3     1  UNL1       -0.0585
     34 C          10.2724   -0.7343    0.0000 C.3     1  UNL1        0.0672
     35 C           7.5503   -0.1317    0.0000 C.3     1  UNL1       -0.0590
     36 C           5.7902    0.8895    0.0000 C.2     1  UNL1       -0.0836
     37 C           9.3307   -1.2731    0.0000 C.3     1  UNL1       -0.0255
     38 C           7.2903    3.1614    0.0000 C.3     1  UNL1       -0.0552
     39 C           3.9498    1.8252    0.0000 C.3     1  UNL1       -0.0402
     40 C           3.9249    3.9805    0.0000 C.3     1  UNL1       -0.0338
     41 C           2.9999    2.3495    0.0000 C.3     1  UNL1       -0.0343
     42 C          10.7615    1.2206    0.0000 C.3     1  UNL1       -0.0572
     43 C          11.2682    0.3584    0.0000 C.3     1  UNL1       -0.0572
     44 C           2.9873    3.4344    0.0000 C.3     1  UNL1       -0.0467
     45 C           4.8508    4.4344    0.0000 C.2     1  UNL1        0.3140
     46 C           2.0000    2.3341    0.0000 C.3     1  UNL1       -0.0598
     47 C           2.5133    1.4759    0.0000 C.3     1  UNL1       -0.0598
     48 C          12.0044   -0.7343    0.0000 C.3     1  UNL1        0.1882
     49 C          12.8705   -1.2343    0.0000 C.3     1  UNL1        0.1410
     50 C          13.7365   -0.7343    0.0000 C.3     1  UNL1        0.1206
     51 C          12.8705    0.7657    0.0000 C.3     1  UNL1        0.0792
     52 C          13.7365    0.2657    0.0000 C.3     1  UNL1        0.1073
     53 C          12.0044   -2.7343    0.0000 C.3     1  UNL1        0.1884
     54 C          15.4685   -0.7343    0.0000 C.3     1  UNL1        0.1884
     55 C          12.0044   -3.7343    0.0000 C.3     1  UNL1        0.1341
     56 C          16.3346   -1.2343    0.0000 C.3     1  UNL1        0.1341
     57 C          11.1384   -4.2343    0.0000 C.3     1  UNL1        0.1140
     58 C          10.2724   -2.7343    0.0000 C.3     1  UNL1        0.0873
     59 C          10.2724   -3.7343    0.0000 C.3     1  UNL1        0.1095
     60 C          17.2006   -0.7343    0.0000 C.3     1  UNL1        0.1141
     61 C          16.3346    0.7657    0.0000 C.3     1  UNL1        0.1130
     62 C          17.2006    0.2657    0.0000 C.3     1  UNL1        0.1119
     63 C           9.4064   -2.2343    0.0000 C.3     1  UNL1       -0.0361
     64 C          16.3346    1.7657    0.0000 C.3     1  UNL1        0.0730
     65 H           8.2600    1.3184    0.0000 H       1  UNL1        0.0315
     66 H           9.8569    1.1964    0.0000 H       1  UNL1        0.0312
     67 H           8.8021    2.9148    0.0000 H       1  UNL1        0.0271
     68 H           8.0039    2.9025    0.0000 H       1  UNL1        0.0271
     69 H           9.9296    1.8202    0.0000 H       1  UNL1        0.0268
     70 H           9.5252    2.5084    0.0000 H       1  UNL1        0.0268
     71 H           4.8941    1.5431    0.0000 H       1  UNL1        0.0357
     72 H           6.2615   -0.0836    0.0000 H       1  UNL1        0.0310
     73 H           7.0586   -0.0805    0.0000 H       1  UNL1        0.0310
     74 H           7.7887   -0.6020    0.0000 H       1  UNL1        0.0271
     75 H           8.1771   -1.2994    0.0000 H       1  UNL1        0.0271
     76 H           7.2721    3.3213    0.0000 H       1  UNL1        0.0299
     77 H           6.8783    4.0156    0.0000 H       1  UNL1        0.0299
     78 H           5.3630    4.4329    0.0000 H       1  UNL1        0.0605
     79 H           8.4402    2.6274    0.0000 H       1  UNL1        0.0235
     80 H           8.0666    3.4206    0.0000 H       1  UNL1        0.0235
     81 H           7.2734    3.0470    0.0000 H       1  UNL1        0.0235
     82 H          10.2712   -1.3543    0.0000 H       1  UNL1        0.0602
     83 H           7.2424    0.4065    0.0000 H       1  UNL1        0.0235
     84 H           7.0122   -0.4396    0.0000 H       1  UNL1        0.0235
     85 H           7.8583   -0.6698    0.0000 H       1  UNL1        0.0235
     86 H           5.2545    0.5775    0.0000 H       1  UNL1        0.0572
     87 H           8.9279   -1.7445    0.0000 H       1  UNL1        0.0290
     88 H           9.7261   -1.7506    0.0000 H       1  UNL1        0.0290
     89 H           7.7668    2.7647    0.0000 H       1  UNL1        0.0238
     90 H           7.6870    3.6378    0.0000 H       1  UNL1        0.0238
     91 H           6.8138    3.5581    0.0000 H       1  UNL1        0.0238
     92 H           3.5617    1.3417    0.0000 H       1  UNL1        0.0276
     93 H           4.3598    1.3601    0.0000 H       1  UNL1        0.0276
     94 H           4.3240    4.4550    0.0000 H       1  UNL1        0.0277
     95 H           3.5257    4.4550    0.0000 H       1  UNL1        0.0277
     96 H          11.3008    0.9147    0.0000 H       1  UNL1        0.0236
     97 H          11.0674    1.7599    0.0000 H       1  UNL1        0.0236
     98 H          10.2222    1.5264    0.0000 H       1  UNL1        0.0236
     99 H          11.2730   -0.2615    0.0000 H       1  UNL1        0.0236
    100 H          11.8882    0.3632    0.0000 H       1  UNL1        0.0236
    101 H          11.2634    0.9784    0.0000 H       1  UNL1        0.0236
    102 H           2.7715    4.0156    0.0000 H       1  UNL1        0.0271
    103 H           2.3777    3.3213    0.0000 H       1  UNL1        0.0271
    104 H           7.0158    4.6171    0.0000 H       1  UNL1        0.2098
    105 H           1.9904    2.9540    0.0000 H       1  UNL1        0.0235
    106 H           1.3801    2.3245    0.0000 H       1  UNL1        0.0235
    107 H           2.0096    1.7142    0.0000 H       1  UNL1        0.0235
    108 H           1.9716    1.7776    0.0000 H       1  UNL1        0.0235
    109 H           2.2116    0.9342    0.0000 H       1  UNL1        0.0235
    110 H           3.0549    1.1742    0.0000 H       1  UNL1        0.0235
    111 H          11.4675   -0.4243    0.0000 H       1  UNL1        0.0937
    112 H           3.9719    5.5443    0.0000 H       1  UNL1        0.2951
    113 H          13.4074   -1.5443    0.0000 H       1  UNL1        0.0675
    114 H          14.2734   -0.4243    0.0000 H       1  UNL1        0.0651
    115 H          13.2690    1.2407    0.0000 H       1  UNL1        0.0587
    116 H          12.4719    1.2407    0.0000 H       1  UNL1        0.0587
    117 H          13.7365    0.8857    0.0000 H       1  UNL1        0.0643
    118 H          12.0044   -2.1143    0.0000 H       1  UNL1        0.0938
    119 H          14.6025    1.3857    0.0000 H       1  UNL1        0.2100
    120 H          15.4685   -1.3543    0.0000 H       1  UNL1        0.0938
    121 H          12.0044   -4.3543    0.0000 H       1  UNL1        0.0671
    122 H          16.8715   -1.5443    0.0000 H       1  UNL1        0.0671
    123 H          10.6015   -4.5443    0.0000 H       1  UNL1        0.0648
    124 H          10.2724   -2.1143    0.0000 H       1  UNL1        0.0621
    125 H           9.7355   -3.4243    0.0000 H       1  UNL1        0.0646
    126 H          17.7375   -0.4243    0.0000 H       1  UNL1        0.0648
    127 H          15.7976    1.0757    0.0000 H       1  UNL1        0.0647
    128 H          12.8705   -4.8543    0.0000 H       1  UNL1        0.2101
    129 H          17.2006    0.8857    0.0000 H       1  UNL1        0.0647
    130 H           9.7164   -1.6973    0.0000 H       1  UNL1        0.0255
    131 H           8.8694   -1.9243    0.0000 H       1  UNL1        0.0255
    132 H           9.0964   -2.7712    0.0000 H       1  UNL1        0.0255
    133 H          16.8715   -2.5443    0.0000 H       1  UNL1        0.2101
    134 H          10.6015   -5.5443    0.0000 H       1  UNL1        0.2100
    135 H           8.8694   -3.9243    0.0000 H       1  UNL1        0.2100
    136 H          16.9452    1.6581    0.0000 H       1  UNL1        0.0584
    137 H          16.5466    2.3484    0.0000 H       1  UNL1        0.0584
    138 H          18.6036   -0.9243    0.0000 H       1  UNL1        0.2100
    139 H          18.0666    1.3857    0.0000 H       1  UNL1        0.2100
    140 H          15.4685    2.8857    0.0000 H       1  UNL1        0.2095
@<TRIPOS>BOND
     1    34     1    1
     2    48     1    1
     3    32     2    1
     4     2   104    1
     5     3    45    1
     6     3   112    1
     7     4    45    2
     8     5    48    1
     9     5    51    1
    10    49     6    1
    11    53     6    1
    12    50     7    1
    13    54     7    1
    14    52     8    1
    15     8   119    1
    16     9    53    1
    17     9    58    1
    18    10    54    1
    19    10    61    1
    20    55    11    1
    21    11   128    1
    22    56    12    1
    23    12   133    1
    24    57    13    1
    25    13   134    1
    26    59    14    1
    27    14   135    1
    28    60    15    1
    29    15   138    1
    30    62    16    1
    31    16   139    1
    32    17    64    1
    33    17   140    1
    34    18    19    1
    35    18    21    1
    36    18    23    1
    37    18    33    1
    38    19    20    1
    39    19    28    1
    40    19    65    1
    41    20    22    1
    42    20    29    1
    43    20    35    1
    44    21    26    1
    45    21    30    1
    46    21    38    1
    47    22    24    1
    48    22    25    1
    49    22    66    1
    50    23    24    1
    51    23    67    1
    52    23    68    1
    53    24    69    1
    54    24    70    1
    55    25    34    1
    56    25    42    1
    57    25    43    1
    58    26    27    1
    59    26    36    2
    60    27    31    1
    61    27    39    1
    62    27    71    1
    63    28    36    1
    64    28    72    1
    65    28    73    1
    66    29    37    1
    67    29    74    1
    68    29    75    1
    69    30    32    1
    70    30    76    1
    71    30    77    1
    72    31    32    1
    73    31    40    1
    74    31    45    1
    75    32    78    1
    76    33    79    1
    77    33    80    1
    78    33    81    1
    79    34    37    1
    80    34    82    1
    81    35    83    1
    82    35    84    1
    83    35    85    1
    84    36    86    1
    85    37    87    1
    86    37    88    1
    87    38    89    1
    88    38    90    1
    89    38    91    1
    90    39    41    1
    91    39    92    1
    92    39    93    1
    93    40    44    1
    94    40    94    1
    95    40    95    1
    96    41    44    1
    97    41    46    1
    98    41    47    1
    99    42    96    1
   100    42    97    1
   101    42    98    1
   102    43    99    1
   103    43   100    1
   104    43   101    1
   105    44   102    1
   106    44   103    1
   107    46   105    1
   108    46   106    1
   109    46   107    1
   110    47   108    1
   111    47   109    1
   112    47   110    1
   113    48    49    1
   114    48   111    1
   115    49    50    1
   116    49   113    1
   117    50    52    1
   118    50   114    1
   119    51    52    1
   120    51   115    1
   121    51   116    1
   122    52   117    1
   123    53    55    1
   124    53   118    1
   125    54    56    1
   126    54   120    1
   127    55    57    1
   128    55   121    1
   129    56    60    1
   130    56   122    1
   131    57    59    1
   132    57   123    1
   133    58    59    1
   134    58    63    1
   135    58   124    1
   136    59   125    1
   137    60    62    1
   138    60   126    1
   139    61    62    1
   140    61    64    1
   141    61   127    1
   142    62   129    1
   143    63   130    1
   144    63   131    1
   145    63   132    1
   146    64   136    1
   147    64   137    1
