@<TRIPOS>MOLECULE
IMPHY010374
 38 41 0 0 0
SMALL
GASTEIGER

@<TRIPOS>ATOM
      1 N           4.6681    2.1062    0.0000 N.3     1  UNL1       -0.3013
      2 N           5.6561   -2.0839    0.0000 N.ar    1  UNL1       -0.3604
      3 C           3.7860    0.5647    0.0000 C.3     1  UNL1        0.0010
      4 C           4.6520    1.0647    0.0000 C.3     1  UNL1        0.0210
      5 C           2.8760    1.0716    0.0000 C.3     1  UNL1       -0.0410
      6 C           2.8680    2.1132    0.0000 C.3     1  UNL1       -0.0305
      7 C           5.5180    0.5647    0.0000 C.3     1  UNL1       -0.0095
      8 C           3.7700    2.6340    0.0000 C.3     1  UNL1        0.0015
      9 C           3.7860   -0.4353    0.0000 C.ar    1  UNL1       -0.0334
     10 C           4.6520   -0.9353    0.0000 C.ar    1  UNL1        0.0064
     11 C           5.5180   -0.4353    0.0000 C.ar    1  UNL1       -0.0206
     12 C           2.0000    2.6098    0.0000 C.3     1  UNL1       -0.0612
     13 C           4.6681   -1.9768    0.0000 C.ar    1  UNL1        0.0470
     14 C           5.5398    2.5962    0.0000 C.3     1  UNL1       -0.0124
     15 C           2.8760   -0.9421    0.0000 C.ar    1  UNL1       -0.0576
     16 C           6.1360   -1.2136    0.0000 C.ar    1  UNL1        0.0060
     17 C           3.7700   -2.5045    0.0000 C.ar    1  UNL1       -0.0378
     18 C           2.8680   -1.9837    0.0000 C.ar    1  UNL1       -0.0595
     19 H           3.0532    0.1341    0.0000 H       1  UNL1        0.0364
     20 H           5.3914    1.4841    0.0000 H       1  UNL1        0.0471
     21 H           2.2643    1.1730    0.0000 H       1  UNL1        0.0275
     22 H           2.6714    0.4863    0.0000 H       1  UNL1        0.0275
     23 H           2.8668    2.7332    0.0000 H       1  UNL1        0.0311
     24 H           6.1286    0.4571    0.0000 H       1  UNL1        0.0329
     25 H           5.7301    1.1474    0.0000 H       1  UNL1        0.0329
     26 H           4.1710    3.1069    0.0000 H       1  UNL1        0.0429
     27 H           3.3727    3.1100    0.0000 H       1  UNL1        0.0429
     28 H           2.3079    3.1480    0.0000 H       1  UNL1        0.0233
     29 H           1.4619    2.9178    0.0000 H       1  UNL1        0.0233
     30 H           1.6921    2.0717    0.0000 H       1  UNL1        0.0233
     31 H           5.8436    2.0557    0.0000 H       1  UNL1        0.0391
     32 H           6.0803    2.9000    0.0000 H       1  UNL1        0.0391
     33 H           5.2360    3.1367    0.0000 H       1  UNL1        0.0391
     34 H           2.3427   -0.6259    0.0000 H       1  UNL1        0.0621
     35 H           6.7538   -1.1619    0.0000 H       1  UNL1        0.0810
     36 H           5.9421   -2.6340    0.0000 H       1  UNL1        0.1653
     37 H           3.7724   -3.1245    0.0000 H       1  UNL1        0.0638
     38 H           2.3298   -2.2916    0.0000 H       1  UNL1        0.0618
@<TRIPOS>BOND
     1     1     4    1
     2     1     8    1
     3     1    14    1
     4     2    13   ar
     5     2    16   ar
     6     2    36    1
     7     3     4    1
     8     3     5    1
     9     3     9    1
    10     3    19    1
    11     4     7    1
    12     4    20    1
    13     5     6    1
    14     5    21    1
    15     5    22    1
    16     6     8    1
    17     6    12    1
    18     6    23    1
    19     7    11    1
    20     7    24    1
    21     7    25    1
    22     8    26    1
    23     8    27    1
    24     9    10   ar
    25     9    15   ar
    26    10    11   ar
    27    10    13   ar
    28    11    16   ar
    29    12    28    1
    30    12    29    1
    31    12    30    1
    32    13    17   ar
    33    14    31    1
    34    14    32    1
    35    14    33    1
    36    15    18   ar
    37    15    34    1
    38    16    35    1
    39    17    18   ar
    40    17    37    1
    41    18    38    1
