@<TRIPOS>MOLECULE
IMPHY004436
 26 26 0 0 0
SMALL
GASTEIGER

@<TRIPOS>ATOM
      1 O           2.8660   -1.8450    0.0000 O.3     1  UNL1       -0.4914
      2 O           4.5981   -2.8450    0.0000 O.3     1  UNL1       -0.5033
      3 O           4.5981    3.1550    0.0000 O.2     1  UNL1       -0.2930
      4 C           4.5981    0.1550    0.0000 C.ar    1  UNL1       -0.0212
      5 C           3.7320   -1.3450    0.0000 C.ar    1  UNL1        0.1618
      6 C           3.7320   -0.3450    0.0000 C.ar    1  UNL1       -0.0092
      7 C           5.4641   -0.3450    0.0000 C.ar    1  UNL1       -0.0509
      8 C           4.5981   -1.8450    0.0000 C.ar    1  UNL1        0.1585
      9 C           5.4641   -1.3450    0.0000 C.ar    1  UNL1       -0.0160
     10 C           4.5981    1.1550    0.0000 C.2     1  UNL1       -0.0512
     11 C           5.4641    1.6550    0.0000 C.2     1  UNL1       -0.0189
     12 C           5.4641    2.6550    0.0000 C.2     1  UNL1        0.1531
     13 C           2.0000   -1.3450    0.0000 C.3     1  UNL1        0.0790
     14 C           6.3301    3.1550    0.0000 C.3     1  UNL1       -0.0020
     15 H           3.1951   -0.0350    0.0000 H       1  UNL1        0.0661
     16 H           6.0010   -0.0350    0.0000 H       1  UNL1        0.0625
     17 H           6.0010   -1.6550    0.0000 H       1  UNL1        0.0655
     18 H           4.0611    1.4650    0.0000 H       1  UNL1        0.0624
     19 H           6.0010    1.3450    0.0000 H       1  UNL1        0.0652
     20 H           2.3100   -0.8081    0.0000 H       1  UNL1        0.0660
     21 H           1.4631   -1.0350    0.0000 H       1  UNL1        0.0660
     22 H           1.6900   -1.8819    0.0000 H       1  UNL1        0.0660
     23 H           5.1350   -3.1550    0.0000 H       1  UNL1        0.2923
     24 H           6.6401    2.6181    0.0000 H       1  UNL1        0.0309
     25 H           6.8671    3.4650    0.0000 H       1  UNL1        0.0309
     26 H           6.0201    3.6919    0.0000 H       1  UNL1        0.0309
@<TRIPOS>BOND
     1     1     5    1
     2     1    13    1
     3     2     8    1
     4     2    23    1
     5     3    12    2
     6     4     6   ar
     7     4     7   ar
     8     4    10    1
     9     5     6   ar
    10     5     8   ar
    11     6    15    1
    12     7     9   ar
    13     7    16    1
    14     8     9   ar
    15     9    17    1
    16    10    11    2
    17    10    18    1
    18    11    12    1
    19    11    19    1
    20    12    14    1
    21    13    20    1
    22    13    21    1
    23    13    22    1
    24    14    24    1
    25    14    25    1
    26    14    26    1
