@<TRIPOS>MOLECULE
IMPHY012546
 54 56 0 0 0
SMALL
GASTEIGER

@<TRIPOS>ATOM
      1 O           7.7331    2.4050    0.0000 O.3     1  UNL1       -0.3830
      2 O           9.4893   -0.4861    0.0000 O.3     1  UNL1       -0.3883
      3 O           6.0010    0.4050    0.0000 O.2     1  UNL1       -0.4699
      4 O           6.8671   -1.0950    0.0000 O.3     1  UNL1       -0.3094
      5 O           5.1350   -1.0950    0.0000 O.3     1  UNL1       -0.3404
      6 O           6.8671   -3.0950    0.0000 O.3     1  UNL1       -0.3841
      7 O           6.0010    3.4050    0.0000 O.3     1  UNL1       -0.4645
      8 O           5.1350   -4.0950    0.0000 O.3     1  UNL1       -0.3864
      9 O           3.4030   -3.0950    0.0000 O.3     1  UNL1       -0.3865
     10 O           7.7331    3.4050    0.0000 O.2     1  UNL1       -0.2451
     11 O           2.5369   -1.5950    0.0000 O.3     1  UNL1       -0.3924
     12 C           7.7331    0.4050    0.0000 C.3     1  UNL1        0.0832
     13 C           7.7331    1.4050    0.0000 C.3     1  UNL1        0.1117
     14 C           8.6793    0.1003    0.0000 C.3     1  UNL1        0.0749
     15 C           8.6793    1.7097    0.0000 C.3     1  UNL1       -0.0163
     16 C           9.2629    0.9050    0.0000 C.3     1  UNL1       -0.0208
     17 C           6.8671   -0.0950    0.0000 C.3     1  UNL1        0.2118
     18 C           6.8671    1.9050    0.0000 C.2     1  UNL1        0.1024
     19 C           8.3719   -0.8513    0.0000 C.3     1  UNL1       -0.0355
     20 C           6.0010    1.4050    0.0000 C.2     1  UNL1        0.1006
     21 C           6.0010   -1.5950    0.0000 C.3     1  UNL1        0.1918
     22 C           6.0010   -2.5950    0.0000 C.3     1  UNL1        0.1342
     23 C           6.8671    2.9050    0.0000 C.2     1  UNL1        0.3406
     24 C           5.1350   -3.0950    0.0000 C.3     1  UNL1        0.1141
     25 C           4.2690   -2.5950    0.0000 C.3     1  UNL1        0.1119
     26 C           4.2690   -1.5950    0.0000 C.3     1  UNL1        0.1130
     27 C           3.4030   -1.0950    0.0000 C.3     1  UNL1        0.0730
     28 C           6.0010    4.4050    0.0000 C.3     1  UNL1        0.0820
     29 H           7.8230   -0.4402    0.0000 H       1  UNL1        0.0421
     30 H           9.2167    2.0190    0.0000 H       1  UNL1        0.0297
     31 H           8.4283    2.2766    0.0000 H       1  UNL1        0.0297
     32 H           9.7238    0.4903    0.0000 H       1  UNL1        0.0294
     33 H           9.7238    1.3197    0.0000 H       1  UNL1        0.0294
     34 H           7.4040   -0.4050    0.0000 H       1  UNL1        0.1061
     35 H           7.7820   -0.6608    0.0000 H       1  UNL1        0.0257
     36 H           8.1814   -1.4413    0.0000 H       1  UNL1        0.0257
     37 H           8.9619   -1.0419    0.0000 H       1  UNL1        0.0257
     38 H           8.2700    2.7150    0.0000 H       1  UNL1        0.2106
     39 H          10.0553   -0.2330    0.0000 H       1  UNL1        0.2102
     40 H           5.4641    1.7150    0.0000 H       1  UNL1        0.1030
     41 H           6.0010   -0.9750    0.0000 H       1  UNL1        0.0939
     42 H           6.0010   -3.2150    0.0000 H       1  UNL1        0.0671
     43 H           4.5981   -3.4050    0.0000 H       1  UNL1        0.0648
     44 H           4.2690   -3.2150    0.0000 H       1  UNL1        0.0647
     45 H           4.2690   -0.9750    0.0000 H       1  UNL1        0.0647
     46 H           3.8015   -0.6201    0.0000 H       1  UNL1        0.0584
     47 H           3.0044   -0.6201    0.0000 H       1  UNL1        0.0584
     48 H           6.8671   -3.7150    0.0000 H       1  UNL1        0.2101
     49 H           4.5981   -4.4050    0.0000 H       1  UNL1        0.2100
     50 H           3.4030   -3.7150    0.0000 H       1  UNL1        0.2100
     51 H           6.6210    4.4050    0.0000 H       1  UNL1        0.0661
     52 H           6.0010    5.0250    0.0000 H       1  UNL1        0.0661
     53 H           5.3810    4.4050    0.0000 H       1  UNL1        0.0661
     54 H           2.0000   -1.2850    0.0000 H       1  UNL1        0.2095
@<TRIPOS>BOND
     1    13     1    1
     2     1    38    1
     3    14     2    1
     4     2    39    1
     5     3    17    1
     6     3    20    1
     7    17     4    1
     8    21     4    1
     9     5    21    1
    10     5    26    1
    11    22     6    1
    12     6    48    1
    13     7    23    1
    14     7    28    1
    15    24     8    1
    16     8    49    1
    17    25     9    1
    18     9    50    1
    19    10    23    2
    20    11    27    1
    21    11    54    1
    22    12    13    1
    23    12    14    1
    24    12    17    1
    25    12    29    1
    26    13    15    1
    27    13    18    1
    28    14    16    1
    29    14    19    1
    30    15    16    1
    31    15    30    1
    32    15    31    1
    33    16    32    1
    34    16    33    1
    35    17    34    1
    36    18    20    2
    37    18    23    1
    38    19    35    1
    39    19    36    1
    40    19    37    1
    41    20    40    1
    42    21    22    1
    43    21    41    1
    44    22    24    1
    45    22    42    1
    46    24    25    1
    47    24    43    1
    48    25    26    1
    49    25    44    1
    50    26    27    1
    51    26    45    1
    52    27    46    1
    53    27    47    1
    54    28    51    1
    55    28    52    1
    56    28    53    1
