@<TRIPOS>MOLECULE
IMPHY014672
 48 48 0 0 0
SMALL
GASTEIGER

@<TRIPOS>ATOM
      1 O           4.1807    3.9679    0.0000 O.3     1  UNL1       -0.3784
      2 O           4.1807   10.4478    0.0000 O.3     2  UNL2       -0.3784
      3 O           0.5897    2.5679    0.0000 O.3     1  UNL1       -0.4795
      4 O           0.5897    9.0478    0.0000 O.3     2  UNL2       -0.4795
      5 O           1.1249    0.9206    0.0000 O.2     1  UNL1       -0.2492
      6 O           1.1249    7.4006    0.0000 O.2     2  UNL2       -0.2492
      7 N           3.0929    1.6200    0.0000 N.3     1  UNL1       -0.2905
      8 N           3.0929    8.0999    0.0000 N.3     2  UNL2       -0.2905
      9 C           2.2839    2.2078    0.0000 C.3     1  UNL1        0.1104
     10 C           2.2839    8.6877    0.0000 C.3     2  UNL2        0.1104
     11 C           3.5929    3.1588    0.0000 C.3     1  UNL1        0.0729
     12 C           3.5929    9.6388    0.0000 C.3     2  UNL2        0.0729
     13 C           2.5929    3.1588    0.0000 C.3     1  UNL1        0.0006
     14 C           2.5929    9.6388    0.0000 C.3     2  UNL2        0.0006
     15 C           3.9019    2.2078    0.0000 C.3     1  UNL1        0.0257
     16 C           3.9019    8.6877    0.0000 C.3     2  UNL2        0.0257
     17 C           3.0929    0.6200    0.0000 C.3     1  UNL1       -0.0119
     18 C           3.0929    7.0999    0.0000 C.3     2  UNL2       -0.0119
     19 C           1.3328    1.8988    0.0000 C.2     1  UNL1        0.3222
     20 C           1.3328    8.3787    0.0000 C.2     2  UNL2        0.3222
     21 C           5.1752    3.8633    0.0000 C.3     1  UNL1        0.0369
     22 C           5.1752   10.3433    0.0000 C.3     2  UNL2        0.0369
     23 H           2.1869    1.5954    0.0000 H       1  UNL1        0.0579
     24 H           2.1869    8.0754    0.0000 H       2  UNL2        0.0579
     25 H           4.2052    3.0619    0.0000 H       1  UNL1        0.0609
     26 H           4.2052    9.5418    0.0000 H       2  UNL2        0.0609
     27 H           2.6577    3.7754    0.0000 H       1  UNL1        0.0311
     28 H           1.9864    3.2878    0.0000 H       1  UNL1        0.0311
     29 H           2.6577   10.2554    0.0000 H       2  UNL2        0.0311
     30 H           1.9864    9.7677    0.0000 H       2  UNL2        0.0311
     31 H           4.2119    1.6708    0.0000 H       1  UNL1        0.0452
     32 H           4.4683    2.4600    0.0000 H       1  UNL1        0.0452
     33 H           4.2119    8.1508    0.0000 H       2  UNL2        0.0452
     34 H           4.4683    8.9399    0.0000 H       2  UNL2        0.0452
     35 H           2.4729    0.6200    0.0000 H       1  UNL1        0.0391
     36 H           3.0929    0.0000    0.0000 H       1  UNL1        0.0391
     37 H           3.7129    0.6200    0.0000 H       1  UNL1        0.0391
     38 H           2.4729    7.0999    0.0000 H       2  UNL2        0.0391
     39 H           3.0929    6.4799    0.0000 H       2  UNL2        0.0391
     40 H           3.7129    7.0999    0.0000 H       2  UNL2        0.0391
     41 H           5.1104    3.2467    0.0000 H       1  UNL1        0.0524
     42 H           5.7918    3.7985    0.0000 H       1  UNL1        0.0524
     43 H           5.2400    4.4799    0.0000 H       1  UNL1        0.0524
     44 H           5.1104    9.7267    0.0000 H       2  UNL2        0.0524
     45 H           5.7918   10.2785    0.0000 H       2  UNL2        0.0524
     46 H           5.2400   10.9599    0.0000 H       2  UNL2        0.0524
     47 H           0.0000    2.3763    0.0000 H       1  UNL1        0.2951
     48 H           0.0000    8.8562    0.0000 H       2  UNL2        0.2951
@<TRIPOS>BOND
     1    11     1    1
     2     1    21    1
     3    12     2    1
     4     2    22    1
     5     3    19    1
     6     3    47    1
     7     4    20    1
     8     4    48    1
     9     5    19    2
    10     6    20    2
    11     7     9    1
    12     7    15    1
    13     7    17    1
    14     8    10    1
    15     8    16    1
    16     8    18    1
    17     9    13    1
    18     9    19    1
    19     9    23    1
    20    10    14    1
    21    10    20    1
    22    10    24    1
    23    11    13    1
    24    11    15    1
    25    11    25    1
    26    12    14    1
    27    12    16    1
    28    12    26    1
    29    13    27    1
    30    13    28    1
    31    14    29    1
    32    14    30    1
    33    15    31    1
    34    15    32    1
    35    16    33    1
    36    16    34    1
    37    17    35    1
    38    17    36    1
    39    17    37    1
    40    18    38    1
    41    18    39    1
    42    18    40    1
    43    21    41    1
    44    21    42    1
    45    21    43    1
    46    22    44    1
    47    22    45    1
    48    22    46    1
