@<TRIPOS>MOLECULE
IMPHY000889
 69 73 0 0 0
SMALL
GASTEIGER

@<TRIPOS>ATOM
      1 O           8.1647    0.9165    0.0000 O.3     1  UNL1       -0.3455
      2 O           6.9961   -1.9492    0.0000 O.3     1  UNL1       -0.4581
      3 O           9.2441    1.9861    0.0000 O.3     1  UNL1       -0.3623
      4 O           7.8781    2.6201    0.0000 O.3     1  UNL1       -0.3862
      5 O           5.2418    0.1232    0.0000 O.3     1  UNL1       -0.4476
      6 O          10.5284    1.2050    0.0000 O.3     1  UNL1       -0.3834
      7 O           5.2261   -1.9250    0.0000 O.2     1  UNL1       -0.2466
      8 O          12.3632    0.2208    0.0000 O.2     1  UNL1       -0.2899
      9 O           4.3585   -1.3667    0.0000 O.2     1  UNL1       -0.2476
     10 O           2.6497    0.6532    0.0000 O.3     1  UNL1       -0.3777
     11 C           7.8781   -0.3799    0.0000 C.3     1  UNL1        0.0466
     12 C           8.7441    0.1201    0.0000 C.3     1  UNL1        0.0357
     13 C           9.6539   -0.3679    0.0000 C.3     1  UNL1        0.0162
     14 C           7.0120    0.1201    0.0000 C.3     1  UNL1        0.0234
     15 C           8.7441    1.1201    0.0000 C.3     1  UNL1        0.1981
     16 C           7.8941   -1.4214    0.0000 C.3     1  UNL1        0.1123
     17 C           9.6782   -1.4000    0.0000 C.3     1  UNL1       -0.0078
     18 C           7.0120    1.1201    0.0000 C.3     1  UNL1       -0.0053
     19 C           7.7647    0.2237    0.0000 C.3     1  UNL1        0.0609
     20 C           7.8781    1.6201    0.0000 C.3     1  UNL1        0.1120
     21 C           8.7924   -1.9303    0.0000 C.3     1  UNL1       -0.0079
     22 C           6.1020   -0.3868    0.0000 C.3     1  UNL1        0.2028
     23 C          10.5635    0.2056    0.0000 C.3     1  UNL1        0.1233
     24 C           9.6303    0.6318    0.0000 C.3     1  UNL1       -0.0558
     25 C          10.6138   -1.9302    0.0000 C.2     1  UNL1       -0.0654
     26 C           6.1460    1.6201    0.0000 C.3     1  UNL1       -0.0595
     27 C           6.0940   -1.4284    0.0000 C.2     1  UNL1        0.3490
     28 C          11.5112   -0.3027    0.0000 C.2     1  UNL1        0.1848
     29 C          11.5365   -1.3778    0.0000 C.2     1  UNL1       -0.0173
     30 C          10.6258   -2.9301    0.0000 C.3     1  UNL1       -0.0431
     31 C           4.3701   -0.3667    0.0000 C.2     1  UNL1        0.3396
     32 C           3.5099    0.1432    0.0000 C.3     1  UNL1        0.1590
     33 C           2.9999   -0.7169    0.0000 C.3     1  UNL1       -0.0166
     34 C           4.0199    1.0034    0.0000 C.3     1  UNL1       -0.0256
     35 C           2.0000   -0.7054    0.0000 C.3     1  UNL1       -0.0622
     36 H           9.1691   -0.6160    0.0000 H       1  UNL1        0.0367
     37 H           6.2759    0.5451    0.0000 H       1  UNL1        0.0353
     38 H           7.9008   -2.2714    0.0000 H       1  UNL1        0.0740
     39 H           9.6884   -2.2500    0.0000 H       1  UNL1        0.0353
     40 H           7.0120    1.7401    0.0000 H       1  UNL1        0.0329
     41 H           7.3375    0.6731    0.0000 H       1  UNL1        0.0568
     42 H           7.2127   -0.0587    0.0000 H       1  UNL1        0.0568
     43 H           8.4150    1.9301    0.0000 H       1  UNL1        0.0650
     44 H           8.3989   -2.4095    0.0000 H       1  UNL1        0.0307
     45 H           9.1972   -2.4000    0.0000 H       1  UNL1        0.0307
     46 H           5.5621   -0.6916    0.0000 H       1  UNL1        0.0856
     47 H          11.0899    0.5333    0.0000 H       1  UNL1        0.0682
     48 H          10.2502    0.6464    0.0000 H       1  UNL1        0.0236
     49 H           9.6157    1.2516    0.0000 H       1  UNL1        0.0236
     50 H           9.0105    0.6172    0.0000 H       1  UNL1        0.0236
     51 H           6.4560    2.1570    0.0000 H       1  UNL1        0.0233
     52 H           5.6091    1.9301    0.0000 H       1  UNL1        0.0233
     53 H           5.8360    1.0831    0.0000 H       1  UNL1        0.0233
     54 H           8.9341    2.5230    0.0000 H       1  UNL1        0.2128
     55 H           7.3411    2.9301    0.0000 H       1  UNL1        0.2100
     56 H          12.0794   -1.6772    0.0000 H       1  UNL1        0.0653
     57 H          11.0541    1.5337    0.0000 H       1  UNL1        0.2104
     58 H          10.0059   -2.9375    0.0000 H       1  UNL1        0.0275
     59 H          10.6332   -3.5500    0.0000 H       1  UNL1        0.0275
     60 H          11.2458   -2.9226    0.0000 H       1  UNL1        0.0275
     61 H           2.8852   -1.3262    0.0000 H       1  UNL1        0.0296
     62 H           3.5800   -0.9357    0.0000 H       1  UNL1        0.0296
     63 H           4.5532    0.6872    0.0000 H       1  UNL1        0.0263
     64 H           4.3361    1.5367    0.0000 H       1  UNL1        0.0263
     65 H           3.4866    1.3196    0.0000 H       1  UNL1        0.0263
     66 H           2.1092    0.3495    0.0000 H       1  UNL1        0.2109
     67 H           2.0072   -0.0854    0.0000 H       1  UNL1        0.0231
     68 H           1.3800   -0.6982    0.0000 H       1  UNL1        0.0231
     69 H           1.9928   -1.3253    0.0000 H       1  UNL1        0.0231
@<TRIPOS>BOND
     1     1    15    1
     2     1    19    1
     3     2    16    1
     4     2    27    1
     5    15     3    1
     6     3    54    1
     7    20     4    1
     8     4    55    1
     9    22     5    1
    10     5    31    1
    11    23     6    1
    12     6    57    1
    13     7    27    2
    14     8    28    2
    15     9    31    2
    16    32    10    1
    17    10    66    1
    18    11    12    1
    19    11    14    1
    20    11    16    1
    21    11    19    1
    22    12    13    1
    23    12    15    1
    24    12    36    1
    25    13    17    1
    26    13    23    1
    27    13    24    1
    28    14    18    1
    29    14    22    1
    30    14    37    1
    31    15    20    1
    32    16    21    1
    33    16    38    1
    34    17    21    1
    35    17    25    1
    36    17    39    1
    37    18    20    1
    38    18    26    1
    39    18    40    1
    40    19    41    1
    41    19    42    1
    42    20    43    1
    43    21    44    1
    44    21    45    1
    45    22    27    1
    46    22    46    1
    47    23    28    1
    48    23    47    1
    49    24    48    1
    50    24    49    1
    51    24    50    1
    52    25    29    2
    53    25    30    1
    54    26    51    1
    55    26    52    1
    56    26    53    1
    57    28    29    1
    58    29    56    1
    59    30    58    1
    60    30    59    1
    61    30    60    1
    62    31    32    1
    63    32    33    1
    64    32    34    1
    65    33    35    1
    66    33    61    1
    67    33    62    1
    68    34    63    1
    69    34    64    1
    70    34    65    1
    71    35    67    1
    72    35    68    1
    73    35    69    1
