@<TRIPOS>MOLECULE
IMPHY017840
 45 46 0 0 0
SMALL
GASTEIGER

@<TRIPOS>ATOM
      1 O           9.9490   -1.4029    0.0000 O.3     1  UNL1       -0.4604
      2 O           9.9490   -3.1349    0.0000 O.2     1  UNL1       -0.2512
      3 C           5.4490    1.1952    0.0000 C.3     1  UNL1       -0.0222
      4 C           4.3089    2.1523    0.0000 C.3     1  UNL1       -0.0311
      5 C           4.0501    1.1864    0.0000 C.3     1  UNL1       -0.0142
      6 C           3.5723    3.1349    0.0000 C.3     1  UNL1       -0.0424
      7 C           2.2756    1.8412    0.0000 C.3     1  UNL1       -0.0311
      8 C           5.9490    0.3292    0.0000 C.3     1  UNL1       -0.0434
      9 C           2.8290    0.3207    0.0000 C.2     1  UNL1       -0.0729
     10 C           6.3150    1.6952    0.0000 C.3     1  UNL1       -0.0587
     11 C           2.0000    0.8799    0.0000 C.2     1  UNL1       -0.0845
     12 C           6.9490    0.3292    0.0000 C.3     1  UNL1       -0.0339
     13 C           2.8639   -0.6787    0.0000 C.3     1  UNL1       -0.0435
     14 C           7.4490   -0.5368    0.0000 C.2     1  UNL1       -0.0818
     15 C           8.4490   -0.5368    0.0000 C.2     1  UNL1       -0.0396
     16 C           8.9490   -1.4029    0.0000 C.3     1  UNL1        0.1133
     17 C           8.9490    0.3292    0.0000 C.3     1  UNL1       -0.0406
     18 C          10.4490   -2.2689    0.0000 C.2     1  UNL1        0.3042
     19 C          11.4490   -2.2689    0.0000 C.3     1  UNL1        0.0332
     20 H           4.5289    2.9734    0.0000 H       1  UNL1        0.0309
     21 H           3.8301    0.3653    0.0000 H       1  UNL1        0.0351
     22 H           3.8901    3.6673    0.0000 H       1  UNL1        0.0274
     23 H           2.9591    3.2269    0.0000 H       1  UNL1        0.0274
     24 H           2.2706    2.4612    0.0000 H       1  UNL1        0.0310
     25 H           1.6613    1.9250    0.0000 H       1  UNL1        0.0310
     26 H           5.3664    0.1171    0.0000 H       1  UNL1        0.0274
     27 H           6.0567   -0.2814    0.0000 H       1  UNL1        0.0274
     28 H           6.6250    1.1583    0.0000 H       1  UNL1        0.0235
     29 H           6.8520    2.0052    0.0000 H       1  UNL1        0.0235
     30 H           6.0050    2.2321    0.0000 H       1  UNL1        0.0235
     31 H           1.4174    0.6679    0.0000 H       1  UNL1        0.0572
     32 H           7.5316    0.5412    0.0000 H       1  UNL1        0.0308
     33 H           6.8413    0.9398    0.0000 H       1  UNL1        0.0308
     34 H           2.2443   -0.7003    0.0000 H       1  UNL1        0.0274
     35 H           2.8856   -1.2983    0.0000 H       1  UNL1        0.0274
     36 H           3.4836   -0.6570    0.0000 H       1  UNL1        0.0274
     37 H           7.1390   -1.0738    0.0000 H       1  UNL1        0.0573
     38 H           8.3664   -1.6149    0.0000 H       1  UNL1        0.0745
     39 H           9.0567   -2.0135    0.0000 H       1  UNL1        0.0745
     40 H           9.4859    0.0192    0.0000 H       1  UNL1        0.0275
     41 H           9.2590    0.8661    0.0000 H       1  UNL1        0.0275
     42 H           8.4121    0.6392    0.0000 H       1  UNL1        0.0275
     43 H          11.4490   -2.8889    0.0000 H       1  UNL1        0.0342
     44 H          12.0690   -2.2689    0.0000 H       1  UNL1        0.0342
     45 H          11.4490   -1.6489    0.0000 H       1  UNL1        0.0342
@<TRIPOS>BOND
     1     1    16    1
     2     1    18    1
     3     2    18    2
     4     3     4    1
     5     3     5    1
     6     3     8    1
     7     3    10    1
     8     4     6    1
     9     4     7    1
    10     4    20    1
    11     5     6    1
    12     5     9    1
    13     5    21    1
    14     6    22    1
    15     6    23    1
    16     7    11    1
    17     7    24    1
    18     7    25    1
    19     8    12    1
    20     8    26    1
    21     8    27    1
    22     9    11    2
    23     9    13    1
    24    10    28    1
    25    10    29    1
    26    10    30    1
    27    11    31    1
    28    12    14    1
    29    12    32    1
    30    12    33    1
    31    13    34    1
    32    13    35    1
    33    13    36    1
    34    14    15    2
    35    14    37    1
    36    15    16    1
    37    15    17    1
    38    16    38    1
    39    16    39    1
    40    17    40    1
    41    17    41    1
    42    17    42    1
    43    18    19    1
    44    19    43    1
    45    19    44    1
    46    19    45    1
