@<TRIPOS>MOLECULE
IMPHY009302
 56 57 0 0 0
SMALL
GASTEIGER

@<TRIPOS>ATOM
      1 O           4.0595   -0.0229    0.0000 O.3     1  UNL1       -0.3944
      2 O           5.2446    3.9490    0.0000 O.2     1  UNL1       -0.3004
      3 O           8.5906   -1.1847    0.0000 O.3     1  UNL1       -0.3907
      4 O           7.4841   -3.5879    0.0000 O.3     1  UNL1       -0.3910
      5 C           5.3388    1.1447    0.0000 C.3     1  UNL1        0.0005
      6 C           4.3911    1.4447    0.0000 C.3     1  UNL1       -0.0204
      7 C           4.3861    2.4447    0.0000 C.3     1  UNL1        0.0333
      8 C           5.9184    1.9523    0.0000 C.3     1  UNL1       -0.0349
      9 C           5.3308    2.7541    0.0000 C.3     1  UNL1       -0.0372
     10 C           3.6124    0.8173    0.0000 C.3     1  UNL1       -0.0453
     11 C           6.1518    0.5623    0.0000 C.3     1  UNL1       -0.0410
     12 C           3.6012    3.0643    0.0000 C.3     1  UNL1       -0.0196
     13 C           5.0362    0.1916    0.0000 C.3     1  UNL1        0.0504
     14 C           6.9184    1.9573    0.0000 C.3     1  UNL1       -0.0618
     15 C           4.3811    3.4447    0.0000 C.2     1  UNL1        0.1270
     16 C           2.6364    1.0350    0.0000 C.3     1  UNL1       -0.0342
     17 C           2.6274    2.8369    0.0000 C.2     1  UNL1       -0.0756
     18 C           6.0539   -0.4329    0.0000 C.3     1  UNL1       -0.0289
     19 C           2.1980    1.9338    0.0000 C.2     1  UNL1       -0.0850
     20 C           2.0000    3.6156    0.0000 C.3     1  UNL1       -0.0438
     21 C           6.8669   -1.0152    0.0000 C.2     1  UNL1       -0.0463
     22 C           7.7777   -0.6023    0.0000 C.3     1  UNL1        0.0654
     23 C           6.7690   -2.0104    0.0000 C.2     1  UNL1       -0.0576
     24 C           7.5820   -2.5927    0.0000 C.3     1  UNL1        0.0627
     25 H           4.5481    0.6093    0.0000 H       1  UNL1        0.0316
     26 H           6.2029    1.4014    0.0000 H       1  UNL1        0.0305
     27 H           5.8666    3.0660    0.0000 H       1  UNL1        0.0277
     28 H           5.0770    3.3198    0.0000 H       1  UNL1        0.0277
     29 H           3.3462    0.2574    0.0000 H       1  UNL1        0.0271
     30 H           4.0990    0.4332    0.0000 H       1  UNL1        0.0271
     31 H           6.7489    0.3955    0.0000 H       1  UNL1        0.0275
     32 H           6.4198    1.1214    0.0000 H       1  UNL1        0.0275
     33 H           4.0840    3.4532    0.0000 H       1  UNL1        0.0319
     34 H           3.3294    3.6215    0.0000 H       1  UNL1        0.0319
     35 H           5.0620   -0.4279    0.0000 H       1  UNL1        0.0563
     36 H           5.6507    0.1094    0.0000 H       1  UNL1        0.0563
     37 H           6.9215    1.3373    0.0000 H       1  UNL1        0.0233
     38 H           7.5384    1.9604    0.0000 H       1  UNL1        0.0233
     39 H           6.9153    2.5773    0.0000 H       1  UNL1        0.0233
     40 H           3.8427    3.7520    0.0000 H       1  UNL1        0.1032
     41 H           2.0326    0.8940    0.0000 H       1  UNL1        0.0307
     42 H           2.6395    0.4150    0.0000 H       1  UNL1        0.0307
     43 H           5.4568   -0.2660    0.0000 H       1  UNL1        0.0311
     44 H           5.7859   -0.9919    0.0000 H       1  UNL1        0.0311
     45 H           1.5780    1.9307    0.0000 H       1  UNL1        0.0572
     46 H           3.8719   -0.6138    0.0000 H       1  UNL1        0.2094
     47 H           2.4828    4.0046    0.0000 H       1  UNL1        0.0274
     48 H           1.6110    4.0984    0.0000 H       1  UNL1        0.0274
     49 H           1.5172    3.2266    0.0000 H       1  UNL1        0.0274
     50 H           8.2208   -0.1687    0.0000 H       1  UNL1        0.0604
     51 H           7.4275   -0.0907    0.0000 H       1  UNL1        0.0604
     52 H           6.2043   -2.2664    0.0000 H       1  UNL1        0.0595
     53 H           8.1791   -2.7596    0.0000 H       1  UNL1        0.0601
     54 H           7.8500   -2.0337    0.0000 H       1  UNL1        0.0601
     55 H           9.1553   -0.9287    0.0000 H       1  UNL1        0.2098
     56 H           7.9882   -3.9490    0.0000 H       1  UNL1        0.2098
@<TRIPOS>BOND
     1     1    13    1
     2     1    46    1
     3     2    15    2
     4     3    22    1
     5     3    55    1
     6     4    24    1
     7     4    56    1
     8     5     6    1
     9     5     8    1
    10     5    11    1
    11     5    13    1
    12     6     7    1
    13     6    10    1
    14     6    25    1
    15     7     9    1
    16     7    12    1
    17     7    15    1
    18     8     9    1
    19     8    14    1
    20     8    26    1
    21     9    27    1
    22     9    28    1
    23    10    16    1
    24    10    29    1
    25    10    30    1
    26    11    18    1
    27    11    31    1
    28    11    32    1
    29    12    17    1
    30    12    33    1
    31    12    34    1
    32    13    35    1
    33    13    36    1
    34    14    37    1
    35    14    38    1
    36    14    39    1
    37    15    40    1
    38    16    19    1
    39    16    41    1
    40    16    42    1
    41    17    19    2
    42    17    20    1
    43    18    21    1
    44    18    43    1
    45    18    44    1
    46    19    45    1
    47    20    47    1
    48    20    48    1
    49    20    49    1
    50    21    22    1
    51    21    23    2
    52    22    50    1
    53    22    51    1
    54    23    24    1
    55    23    52    1
    56    24    53    1
    57    24    54    1
