@<TRIPOS>MOLECULE
IMPHY007055
 17 18 0 0 0
SMALL
GASTEIGER

@<TRIPOS>ATOM
      1 O           6.4103    0.4947    0.0000 O.3     1  UNL1       -0.4526
      2 O           6.4103   -1.1147    0.0000 O.3     1  UNL1       -0.4526
      3 O           2.0000    0.1900    0.0000 O.2     1  UNL1       -0.2957
      4 C           5.4641    0.1900    0.0000 C.ar    1  UNL1        0.1669
      5 C           5.4641   -0.8100    0.0000 C.ar    1  UNL1        0.1663
      6 C           4.5981    0.6900    0.0000 C.ar    1  UNL1       -0.0059
      7 C           6.9939   -0.3100    0.0000 C.3     1  UNL1        0.2332
      8 C           4.5981   -1.3100    0.0000 C.ar    1  UNL1       -0.0155
      9 C           3.7320    0.1900    0.0000 C.ar    1  UNL1        0.0179
     10 C           3.7320   -0.8100    0.0000 C.ar    1  UNL1       -0.0478
     11 C           2.8660    0.6900    0.0000 C.2     1  UNL1        0.1503
     12 H           4.5981    1.3100    0.0000 H       1  UNL1        0.0662
     13 H           7.4548   -0.7247    0.0000 H       1  UNL1        0.1166
     14 H           7.4548    0.1047    0.0000 H       1  UNL1        0.1166
     15 H           4.5981   -1.9300    0.0000 H       1  UNL1        0.0655
     16 H           3.1951   -1.1200    0.0000 H       1  UNL1        0.0626
     17 H           2.8660    1.3100    0.0000 H       1  UNL1        0.1081
@<TRIPOS>BOND
     1     1     4    1
     2     1     7    1
     3     2     5    1
     4     2     7    1
     5     3    11    2
     6     4     5   ar
     7     4     6   ar
     8     5     8   ar
     9     6     9   ar
    10     6    12    1
    11     7    13    1
    12     7    14    1
    13     8    10   ar
    14     8    15    1
    15     9    10   ar
    16     9    11    1
    17    10    16    1
    18    11    17    1
