@<TRIPOS>MOLECULE
IMPHY002644
 58 61 0 0 0
SMALL
GASTEIGER

@<TRIPOS>ATOM
      1 O          10.9411   -0.8851    0.0000 O.3     1  UNL1       -0.4847
      2 O          12.9369   -2.7125    0.0000 O.3     1  UNL1       -0.3855
      3 O          12.4525    2.0926    0.0000 O.3     1  UNL1       -0.5064
      4 O           8.0901   -1.4763    0.0000 O.2     1  UNL1       -0.4618
      5 O           8.0785    1.5930    0.0000 O.2     1  UNL1       -0.2863
      6 O           6.3301    1.5584    0.0000 O.3     1  UNL1       -0.5055
      7 O           4.5981   -1.4416    0.0000 O.3     1  UNL1       -0.5062
      8 C          11.9303   -0.9844    0.0000 C.3     1  UNL1        0.1324
      9 C          12.4336   -1.8484    0.0000 C.3     1  UNL1        0.0974
     10 C          12.3319   -0.0750    0.0000 C.3     1  UNL1        0.0192
     11 C          11.5923    0.5892    0.0000 C.ar    1  UNL1        0.0398
     12 C          10.7282    0.0859    0.0000 C.ar    1  UNL1        0.1357
     13 C          13.2977   -1.3451    0.0000 C.3     1  UNL1       -0.0328
     14 C          11.5695   -2.3518    0.0000 C.3     1  UNL1       -0.0328
     15 C           9.8602    0.5825    0.0000 C.ar    1  UNL1        0.0309
     16 C          11.5884    1.5892    0.0000 C.ar    1  UNL1        0.1237
     17 C           9.8564    1.5825    0.0000 C.ar    1  UNL1       -0.0469
     18 C           8.9962    0.0792    0.0000 C.ar    1  UNL1        0.0679
     19 C          10.7205    2.0859    0.0000 C.ar    1  UNL1       -0.0191
     20 C           8.0901    0.5931    0.0000 C.ar    1  UNL1        0.2038
     21 C           7.1962    0.0584    0.0000 C.ar    1  UNL1        0.1063
     22 C           8.9962   -0.9624    0.0000 C.ar    1  UNL1        0.1040
     23 C           7.1962   -0.9416    0.0000 C.ar    1  UNL1        0.1454
     24 C           6.3301    0.5584    0.0000 C.ar    1  UNL1        0.1381
     25 C           5.4641    0.0584    0.0000 C.ar    1  UNL1        0.0400
     26 C           6.3301   -1.4416    0.0000 C.ar    1  UNL1        0.0234
     27 C           5.4641   -0.9416    0.0000 C.ar    1  UNL1        0.1273
     28 C           4.5981    0.5584    0.0000 C.3     1  UNL1       -0.0023
     29 C           3.7320    0.0584    0.0000 C.2     1  UNL1       -0.0807
     30 C           2.8660    0.5584    0.0000 C.2     1  UNL1       -0.0793
     31 C           2.0000    0.0584    0.0000 C.3     1  UNL1       -0.0440
     32 C           2.8660    1.5584    0.0000 C.3     1  UNL1       -0.0440
     33 H          11.5948   -1.5058    0.0000 H       1  UNL1        0.0765
     34 H          12.8696   -0.3837    0.0000 H       1  UNL1        0.0352
     35 H          12.6954    0.4272    0.0000 H       1  UNL1        0.0352
     36 H          13.6098   -1.8808    0.0000 H       1  UNL1        0.0258
     37 H          13.8334   -1.0330    0.0000 H       1  UNL1        0.0258
     38 H          12.9856   -0.8094    0.0000 H       1  UNL1        0.0258
     39 H          11.2574   -1.8160    0.0000 H       1  UNL1        0.0258
     40 H          11.0338   -2.6638    0.0000 H       1  UNL1        0.0258
     41 H          11.8816   -2.8875    0.0000 H       1  UNL1        0.0258
     42 H          13.5569   -2.7102    0.0000 H       1  UNL1        0.2103
     43 H           9.3183    1.8905    0.0000 H       1  UNL1        0.0626
     44 H          10.7181    2.7059    0.0000 H       1  UNL1        0.0654
     45 H           9.5319   -1.2745    0.0000 H       1  UNL1        0.1037
     46 H          12.4501    2.7125    0.0000 H       1  UNL1        0.2921
     47 H           6.3301   -2.0616    0.0000 H       1  UNL1        0.0691
     48 H           4.9966    1.0333    0.0000 H       1  UNL1        0.0358
     49 H           4.1996    1.0333    0.0000 H       1  UNL1        0.0358
     50 H           3.7320   -0.5616    0.0000 H       1  UNL1        0.0575
     51 H           5.7932    1.8684    0.0000 H       1  UNL1        0.2922
     52 H           4.5981   -2.0616    0.0000 H       1  UNL1        0.2921
     53 H           1.6900    0.5953    0.0000 H       1  UNL1        0.0274
     54 H           3.4860    1.5584    0.0000 H       1  UNL1        0.0274
     55 H           2.8660    2.1784    0.0000 H       1  UNL1        0.0274
     56 H           2.2460    1.5584    0.0000 H       1  UNL1        0.0274
     57 H           1.4631   -0.2516    0.0000 H       1  UNL1        0.0274
     58 H           2.3100   -0.4785    0.0000 H       1  UNL1        0.0274
@<TRIPOS>BOND
     1     1     8    1
     2     1    12    1
     3     2     9    1
     4     2    42    1
     5     3    16    1
     6     3    46    1
     7     4    22   ar
     8     4    23   ar
     9     5    20    2
    10     6    24    1
    11     6    51    1
    12     7    27    1
    13     7    52    1
    14     8     9    1
    15     8    10    1
    16     8    33    1
    17     9    13    1
    18     9    14    1
    19    10    11    1
    20    10    34    1
    21    10    35    1
    22    11    12   ar
    23    11    16   ar
    24    12    15   ar
    25    13    36    1
    26    13    37    1
    27    13    38    1
    28    14    39    1
    29    14    40    1
    30    14    41    1
    31    15    17   ar
    32    15    18    1
    33    16    19   ar
    34    17    19   ar
    35    17    43    1
    36    18    20   ar
    37    18    22   ar
    38    19    44    1
    39    20    21   ar
    40    21    23   ar
    41    21    24   ar
    42    22    45    1
    43    23    26   ar
    44    24    25   ar
    45    25    27   ar
    46    25    28    1
    47    26    27   ar
    48    26    47    1
    49    28    29    1
    50    28    48    1
    51    28    49    1
    52    29    30    2
    53    29    50    1
    54    30    31    1
    55    30    32    1
    56    31    53    1
    57    31    57    1
    58    31    58    1
    59    32    54    1
    60    32    55    1
    61    32    56    1
