@<TRIPOS>MOLECULE
IMPHY000997
 96 102 0 0 0
SMALL
GASTEIGER

@<TRIPOS>ATOM
      1 O          11.5969    3.0039    0.0000 O.3     1  UNL1       -0.5029
      2 O           8.9546   -0.5517    0.0000 O.3     1  UNL1       -0.4483
      3 O          13.3629    4.0417    0.0000 O.3     1  UNL1       -0.4914
      4 O           8.9546    1.4966    0.0000 O.3     1  UNL1       -0.4914
      5 O           4.6096    0.9587    0.0000 O.3     1  UNL1       -0.4914
      6 O           2.8698   -0.0279    0.0000 O.3     1  UNL1       -0.4914
      7 O          10.6905   -1.5450    0.0000 O.3     1  UNL1       -0.4885
      8 O          10.6982   -3.5450    0.0000 O.3     1  UNL1       -0.4913
      9 N          14.2090   -0.5245    0.0000 N.3     1  UNL1       -0.2978
     10 N           6.3624   -3.1034    0.0000 N.3     1  UNL1       -0.2978
     11 C          13.3508   -0.0276    0.0000 C.3     1  UNL1        0.0403
     12 C          13.3508    0.9724    0.0000 C.ar    1  UNL1       -0.0153
     13 C          12.4848   -0.5276    0.0000 C.3     1  UNL1       -0.0072
     14 C          14.2608    1.4793    0.0000 C.ar    1  UNL1       -0.0372
     15 C          15.0745   -0.0403    0.0000 C.3     1  UNL1        0.0032
     16 C          12.4848    1.4724    0.0000 C.ar    1  UNL1        0.0325
     17 C          15.1001    0.9510    0.0000 C.3     1  UNL1       -0.0144
     18 C          11.6187   -0.0276    0.0000 C.ar    1  UNL1       -0.0340
     19 C          11.6187    0.9724    0.0000 C.ar    1  UNL1       -0.0070
     20 C          14.2688    2.5209    0.0000 C.ar    1  UNL1       -0.0127
     21 C          12.4687    2.5139    0.0000 C.ar    1  UNL1        0.1666
     22 C          14.2016   -1.5245    0.0000 C.3     1  UNL1       -0.0122
     23 C           6.3624   -2.0617    0.0000 C.3     1  UNL1        0.0398
     24 C          10.7248   -0.5622    0.0000 C.ar    1  UNL1       -0.0119
     25 C          13.3667    3.0417    0.0000 C.ar    1  UNL1        0.1622
     26 C          10.7248    1.5071    0.0000 C.ar    1  UNL1       -0.0082
     27 C           5.4563   -1.5479    0.0000 C.ar    1  UNL1       -0.0231
     28 C           7.2264   -1.5584    0.0000 C.3     1  UNL1       -0.0043
     29 C           5.4563   -3.6172    0.0000 C.3     1  UNL1        0.0032
     30 C           9.8187   -0.0484    0.0000 C.ar    1  UNL1        0.1703
     31 C           4.5624   -3.0825    0.0000 C.3     1  UNL1       -0.0144
     32 C           4.5864   -2.0412    0.0000 C.ar    1  UNL1       -0.0378
     33 C           9.8187    0.9932    0.0000 C.ar    1  UNL1        0.1627
     34 C           8.0944   -2.0550    0.0000 C.ar    1  UNL1        0.0006
     35 C           7.2264   -3.6067    0.0000 C.3     1  UNL1       -0.0122
     36 C           5.4640   -0.5479    0.0000 C.ar    1  UNL1       -0.0114
     37 C           8.9585   -1.5517    0.0000 C.ar    1  UNL1        0.1769
     38 C           3.7243   -1.5345    0.0000 C.ar    1  UNL1       -0.0128
     39 C           4.6018   -0.0412    0.0000 C.ar    1  UNL1        0.1618
     40 C           3.7320   -0.5346    0.0000 C.ar    1  UNL1        0.1618
     41 C           8.0982   -3.0550    0.0000 C.ar    1  UNL1       -0.0513
     42 C           9.8264   -2.0484    0.0000 C.ar    1  UNL1        0.2044
     43 C          14.2270    4.5450    0.0000 C.3     1  UNL1        0.0790
     44 C           8.9662   -3.5517    0.0000 C.ar    1  UNL1       -0.0158
     45 C           9.8303   -3.0484    0.0000 C.ar    1  UNL1        0.1652
     46 C           8.9585    2.4966    0.0000 C.3     1  UNL1        0.0790
     47 C           3.7474    1.4654    0.0000 C.3     1  UNL1        0.0790
     48 C           2.0000   -0.5212    0.0000 C.3     1  UNL1        0.0790
     49 C          11.5585   -2.0417    0.0000 C.3     1  UNL1        0.0791
     50 C          10.7021   -4.5450    0.0000 C.3     1  UNL1        0.0790
     51 H          13.3503   -0.8776    0.0000 H       1  UNL1        0.0516
     52 H          12.0862   -1.0025    0.0000 H       1  UNL1        0.0332
     53 H          12.8833   -1.0025    0.0000 H       1  UNL1        0.0332
     54 H          15.2762   -0.6266    0.0000 H       1  UNL1        0.0430
     55 H          15.6873    0.0540    0.0000 H       1  UNL1        0.0430
     56 H          15.7072    0.8252    0.0000 H       1  UNL1        0.0326
     57 H          15.3319    1.5261    0.0000 H       1  UNL1        0.0326
     58 H          14.8069    2.8288    0.0000 H       1  UNL1        0.0658
     59 H          13.5816   -1.5199    0.0000 H       1  UNL1        0.0391
     60 H          14.1970   -2.1445    0.0000 H       1  UNL1        0.0391
     61 H          14.8216   -1.5291    0.0000 H       1  UNL1        0.0391
     62 H           6.8999   -2.3707    0.0000 H       1  UNL1        0.0515
     63 H          10.7320   -1.1822    0.0000 H       1  UNL1        0.0658
     64 H          10.7320    2.1270    0.0000 H       1  UNL1        0.0661
     65 H           7.6231   -1.0819    0.0000 H       1  UNL1        0.0333
     66 H           6.8261   -1.0850    0.0000 H       1  UNL1        0.0333
     67 H           5.0517   -4.0870    0.0000 H       1  UNL1        0.0430
     68 H           5.8499   -4.0962    0.0000 H       1  UNL1        0.0430
     69 H           3.9541   -2.9623    0.0000 H       1  UNL1        0.0326
     70 H           4.3398   -3.6612    0.0000 H       1  UNL1        0.0326
     71 H           6.9144   -4.1424    0.0000 H       1  UNL1        0.0391
     72 H           7.7622   -3.9188    0.0000 H       1  UNL1        0.0391
     73 H           7.5385   -3.0710    0.0000 H       1  UNL1        0.0391
     74 H           6.0033   -0.2421    0.0000 H       1  UNL1        0.0659
     75 H           3.1850   -1.8404    0.0000 H       1  UNL1        0.0658
     76 H          11.5898    3.6238    0.0000 H       1  UNL1        0.2923
     77 H           7.5625   -3.3671    0.0000 H       1  UNL1        0.0623
     78 H           8.9686   -4.1717    0.0000 H       1  UNL1        0.0655
     79 H          14.5390    4.0093    0.0000 H       1  UNL1        0.0660
     80 H          14.7627    4.8571    0.0000 H       1  UNL1        0.0660
     81 H          13.9149    5.0808    0.0000 H       1  UNL1        0.0660
     82 H           9.5785    2.4942    0.0000 H       1  UNL1        0.0660
     83 H           8.9609    3.1166    0.0000 H       1  UNL1        0.0660
     84 H           8.3385    2.4990    0.0000 H       1  UNL1        0.0660
     85 H           4.0616    1.9999    0.0000 H       1  UNL1        0.0660
     86 H           3.2129    1.7795    0.0000 H       1  UNL1        0.0660
     87 H           3.4333    0.9309    0.0000 H       1  UNL1        0.0660
     88 H           1.6942    0.0181    0.0000 H       1  UNL1        0.0660
     89 H           1.4607   -0.8271    0.0000 H       1  UNL1        0.0660
     90 H           2.3058   -1.0605    0.0000 H       1  UNL1        0.0660
     91 H          11.2505   -2.5798    0.0000 H       1  UNL1        0.0660
     92 H          12.0966   -2.3496    0.0000 H       1  UNL1        0.0660
     93 H          11.8664   -1.5036    0.0000 H       1  UNL1        0.0660
     94 H          10.0821   -4.5474    0.0000 H       1  UNL1        0.0660
     95 H          10.7045   -5.1650    0.0000 H       1  UNL1        0.0660
     96 H          11.3221   -4.5426    0.0000 H       1  UNL1        0.0660
@<TRIPOS>BOND
     1     1    21    1
     2     1    76    1
     3     2    30    1
     4     2    37    1
     5     3    25    1
     6     3    43    1
     7     4    33    1
     8     4    46    1
     9     5    39    1
    10     5    47    1
    11     6    40    1
    12     6    48    1
    13     7    42    1
    14     7    49    1
    15     8    45    1
    16     8    50    1
    17     9    11    1
    18     9    15    1
    19     9    22    1
    20    10    23    1
    21    10    29    1
    22    10    35    1
    23    11    12    1
    24    11    13    1
    25    11    51    1
    26    12    14   ar
    27    12    16   ar
    28    13    18    1
    29    13    52    1
    30    13    53    1
    31    14    17    1
    32    14    20   ar
    33    15    17    1
    34    15    54    1
    35    15    55    1
    36    16    19    1
    37    16    21   ar
    38    17    56    1
    39    17    57    1
    40    18    19   ar
    41    18    24   ar
    42    19    26   ar
    43    20    25   ar
    44    20    58    1
    45    21    25   ar
    46    22    59    1
    47    22    60    1
    48    22    61    1
    49    23    27    1
    50    23    28    1
    51    23    62    1
    52    24    30   ar
    53    24    63    1
    54    26    33   ar
    55    26    64    1
    56    27    32   ar
    57    27    36   ar
    58    28    34    1
    59    28    65    1
    60    28    66    1
    61    29    31    1
    62    29    67    1
    63    29    68    1
    64    30    33   ar
    65    31    32    1
    66    31    69    1
    67    31    70    1
    68    32    38   ar
    69    34    37   ar
    70    34    41   ar
    71    35    71    1
    72    35    72    1
    73    35    73    1
    74    36    39   ar
    75    36    74    1
    76    37    42   ar
    77    38    40   ar
    78    38    75    1
    79    39    40   ar
    80    41    44   ar
    81    41    77    1
    82    42    45   ar
    83    43    79    1
    84    43    80    1
    85    43    81    1
    86    44    45   ar
    87    44    78    1
    88    46    82    1
    89    46    83    1
    90    46    84    1
    91    47    85    1
    92    47    86    1
    93    47    87    1
    94    48    88    1
    95    48    89    1
    96    48    90    1
    97    49    91    1
    98    49    92    1
    99    49    93    1
   100    50    94    1
   101    50    95    1
   102    50    96    1
