@<TRIPOS>MOLECULE
IMPHY011384
 38 38 0 0 0
SMALL
GASTEIGER

@<TRIPOS>ATOM
      1 O           4.2601   -3.3649    0.0000 O.3     1  UNL1       -0.4608
      2 O           2.6723   -4.1739    0.0000 O.2     1  UNL1       -0.2453
      3 O           4.6261    2.6739    0.0000 O.2     1  UNL1       -0.2923
      4 C           3.7601   -1.8261    0.0000 C.3     1  UNL1        0.0280
      5 C           3.7601   -0.8261    0.0000 C.3     1  UNL1       -0.0243
      6 C           4.5691   -2.4139    0.0000 C.3     1  UNL1        0.1000
      7 C           2.9511   -2.4139    0.0000 C.2     1  UNL1        0.0361
      8 C           4.6261   -0.3261    0.0000 C.2     1  UNL1       -0.0839
      9 C           3.2601   -3.3649    0.0000 C.2     1  UNL1        0.3350
     10 C           4.6261    0.6739    0.0000 C.2     1  UNL1       -0.0691
     11 C           5.4921    1.1739    0.0000 C.3     1  UNL1        0.0307
     12 C           2.0000   -2.1048    0.0000 C.2     1  UNL1       -0.0883
     13 C           3.7601    1.1739    0.0000 C.3     1  UNL1       -0.0434
     14 C           5.4921    2.1739    0.0000 C.2     1  UNL1        0.1600
     15 C           6.3582    2.6739    0.0000 C.2     1  UNL1       -0.0202
     16 C           6.3582    3.6739    0.0000 C.2     1  UNL1       -0.0724
     17 C           7.2242    4.1739    0.0000 C.3     1  UNL1       -0.0437
     18 C           5.4921    4.1739    0.0000 C.3     1  UNL1       -0.0437
     19 H           4.3125   -1.5446    0.0000 H       1  UNL1        0.0387
     20 H           3.5480   -0.2435    0.0000 H       1  UNL1        0.0314
     21 H           3.1495   -0.9337    0.0000 H       1  UNL1        0.0314
     22 H           5.1355   -2.6660    0.0000 H       1  UNL1        0.0704
     23 H           4.8791   -1.8769    0.0000 H       1  UNL1        0.0704
     24 H           5.1630   -0.6361    0.0000 H       1  UNL1        0.0572
     25 H           5.7042    0.5913    0.0000 H       1  UNL1        0.0390
     26 H           6.1027    1.2816    0.0000 H       1  UNL1        0.0390
     27 H           1.8711   -1.4984    0.0000 H       1  UNL1        0.0540
     28 H           1.5392   -2.5197    0.0000 H       1  UNL1        0.0540
     29 H           4.0701    1.7109    0.0000 H       1  UNL1        0.0274
     30 H           3.2231    1.4839    0.0000 H       1  UNL1        0.0274
     31 H           3.4501    0.6370    0.0000 H       1  UNL1        0.0274
     32 H           6.8951    2.3639    0.0000 H       1  UNL1        0.0652
     33 H           7.5342    3.6370    0.0000 H       1  UNL1        0.0274
     34 H           7.7611    4.4839    0.0000 H       1  UNL1        0.0274
     35 H           6.9142    4.7109    0.0000 H       1  UNL1        0.0274
     36 H           5.8021    4.7109    0.0000 H       1  UNL1        0.0274
     37 H           4.9552    4.4839    0.0000 H       1  UNL1        0.0274
     38 H           5.1821    3.6370    0.0000 H       1  UNL1        0.0274
@<TRIPOS>BOND
     1     1     6    1
     2     1     9    1
     3     2     9    2
     4     3    14    2
     5     4     5    1
     6     4     6    1
     7     4     7    1
     8     4    19    1
     9     5     8    1
    10     5    20    1
    11     5    21    1
    12     6    22    1
    13     6    23    1
    14     7     9    1
    15     7    12    2
    16     8    10    2
    17     8    24    1
    18    10    11    1
    19    10    13    1
    20    11    14    1
    21    11    25    1
    22    11    26    1
    23    12    27    1
    24    12    28    1
    25    13    29    1
    26    13    30    1
    27    13    31    1
    28    14    15    1
    29    15    16    2
    30    15    32    1
    31    16    17    1
    32    16    18    1
    33    17    33    1
    34    17    34    1
    35    17    35    1
    36    18    36    1
    37    18    37    1
    38    18    38    1
