@<TRIPOS>MOLECULE
IMPHY001041
 94 97 0 0 0
SMALL
GASTEIGER

@<TRIPOS>ATOM
      1 O           8.0300    1.2949    0.0000 O.3     1  UNL1       -0.3909
      2 O           4.0925    2.9259    0.0000 O.3     1  UNL1       -0.4567
      3 O           3.7197    1.7741    0.0000 O.3     1  UNL1       -0.4607
      4 O           4.7681    4.5569    0.0000 O.3     1  UNL1       -0.4533
      5 O           5.8638   -1.0426    0.0000 O.3     1  UNL1       -0.4537
      6 O           8.8110    5.3379    0.0000 O.3     1  UNL1       -0.4571
      7 O           4.0925    4.6579    0.0000 O.2     1  UNL1       -0.2512
      8 O           3.0384    0.1816    0.0000 O.2     1  UNL1       -0.2512
      9 O           5.9928    5.7816    0.0000 O.2     1  UNL1       -0.2511
     10 O          10.0358    4.1131    0.0000 O.2     1  UNL1       -0.2511
     11 O           4.1475   -1.2752    0.0000 O.2     1  UNL1       -0.2456
     12 C           5.4752    2.0020    0.0000 C.3     1  UNL1        0.0548
     13 C           6.3991    1.6193    0.0000 C.3     1  UNL1        0.0219
     14 C           7.7056    2.9259    0.0000 C.3     1  UNL1       -0.0018
     15 C           7.3229    3.8498    0.0000 C.3     1  UNL1       -0.0047
     16 C           7.3229    2.0020    0.0000 C.3     1  UNL1        0.0663
     17 C           5.0925    2.9259    0.0000 C.3     1  UNL1        0.1529
     18 C           4.6391    1.3807    0.0000 C.3     1  UNL1        0.1162
     19 C           6.3991    4.2325    0.0000 C.2     1  UNL1       -0.0176
     20 C           5.4752    3.8498    0.0000 C.3     1  UNL1        0.1623
     21 C           8.3787    3.6676    0.0000 C.3     1  UNL1       -0.0057
     22 C           6.5509    0.5888    0.0000 C.2     1  UNL1       -0.0302
     23 C           4.7671    0.3470    0.0000 C.3     1  UNL1        0.0262
     24 C           4.5513    2.3847    0.0000 C.3     1  UNL1       -0.0520
     25 C           5.7295   -0.0516    0.0000 C.3     1  UNL1        0.1279
     26 C           8.1039    4.6308    0.0000 C.3     1  UNL1        0.1246
     27 C           7.1408    4.9056    0.0000 C.2     1  UNL1       -0.0293
     28 C           7.6206    4.9606    0.0000 C.3     1  UNL1       -0.0556
     29 C           8.4338    4.1474    0.0000 C.3     1  UNL1       -0.0556
     30 C           7.4792    0.2169    0.0000 C.2     1  UNL1       -0.0956
     31 C           6.9133    5.8794    0.0000 C.3     1  UNL1       -0.0399
     32 C           3.5925    3.7919    0.0000 C.2     1  UNL1        0.3043
     33 C           2.9194    1.1745    0.0000 C.2     1  UNL1        0.3042
     34 C           5.0269    5.5228    0.0000 C.2     1  UNL1        0.3046
     35 C           9.7770    5.0790    0.0000 C.2     1  UNL1        0.3045
     36 C           5.0728   -1.6544    0.0000 C.2     1  UNL1        0.3325
     37 C           2.5925    3.7919    0.0000 C.3     1  UNL1        0.0332
     38 C           2.0000    1.5679    0.0000 C.3     1  UNL1        0.0332
     39 C           4.3198    6.2299    0.0000 C.3     1  UNL1        0.0333
     40 C          10.4841    5.7862    0.0000 C.3     1  UNL1        0.0333
     41 C           5.2072   -2.6453    0.0000 C.2     1  UNL1        0.0231
     42 C           4.4162   -3.2571    0.0000 C.2     1  UNL1       -0.0478
     43 C           4.5505   -4.2480    0.0000 C.ar    1  UNL1       -0.0248
     44 C           5.4758   -4.6272    0.0000 C.ar    1  UNL1       -0.0546
     45 C           3.7595   -4.8599    0.0000 C.ar    1  UNL1       -0.0546
     46 C           5.6102   -5.6181    0.0000 C.ar    1  UNL1       -0.0612
     47 C           3.8938   -5.8508    0.0000 C.ar    1  UNL1       -0.0612
     48 C           4.8192   -6.2299    0.0000 C.ar    1  UNL1       -0.0617
     49 H           7.1844    1.2941    0.0000 H       1  UNL1        0.0380
     50 H           8.0309    2.1406    0.0000 H       1  UNL1        0.0335
     51 H           7.9310    2.1230    0.0000 H       1  UNL1        0.0602
     52 H           4.7480    3.4414    0.0000 H       1  UNL1        0.0782
     53 H           4.1436    1.0081    0.0000 H       1  UNL1        0.0742
     54 H           5.5961    4.4579    0.0000 H       1  UNL1        0.0820
     55 H           8.7532    3.1735    0.0000 H       1  UNL1        0.0308
     56 H           8.9334    3.9446    0.0000 H       1  UNL1        0.0308
     57 H           4.1479    0.3772    0.0000 H       1  UNL1        0.0340
     58 H           4.6314   -0.2580    0.0000 H       1  UNL1        0.0340
     59 H           4.7886    2.9575    0.0000 H       1  UNL1        0.0238
     60 H           3.9785    2.6220    0.0000 H       1  UNL1        0.0238
     61 H           4.3140    1.8119    0.0000 H       1  UNL1        0.0238
     62 H           5.2383   -0.4300    0.0000 H       1  UNL1        0.0783
     63 H           8.7041    4.4751    0.0000 H       1  UNL1        0.0782
     64 H           8.2195    4.8001    0.0000 H       1  UNL1        0.0238
     65 H           7.7810    5.5595    0.0000 H       1  UNL1        0.0238
     66 H           7.0217    5.1211    0.0000 H       1  UNL1        0.0238
     67 H           8.5942    3.5486    0.0000 H       1  UNL1        0.0238
     68 H           9.0326    4.3079    0.0000 H       1  UNL1        0.0238
     69 H           8.2733    4.7463    0.0000 H       1  UNL1        0.0238
     70 H           8.6289    1.4554    0.0000 H       1  UNL1        0.2098
     71 H           7.5672   -0.3969    0.0000 H       1  UNL1        0.0536
     72 H           7.9666    0.6000    0.0000 H       1  UNL1        0.0536
     73 H           7.5170    6.0204    0.0000 H       1  UNL1        0.0276
     74 H           6.7722    6.4831    0.0000 H       1  UNL1        0.0276
     75 H           6.3095    5.7383    0.0000 H       1  UNL1        0.0276
     76 H           2.5925    4.4119    0.0000 H       1  UNL1        0.0342
     77 H           1.9725    3.7919    0.0000 H       1  UNL1        0.0342
     78 H           2.5925    3.1719    0.0000 H       1  UNL1        0.0342
     79 H           2.2439    2.1379    0.0000 H       1  UNL1        0.0342
     80 H           1.4300    1.8117    0.0000 H       1  UNL1        0.0342
     81 H           1.7561    0.9978    0.0000 H       1  UNL1        0.0342
     82 H           4.7582    6.6683    0.0000 H       1  UNL1        0.0342
     83 H           3.8814    6.6683    0.0000 H       1  UNL1        0.0342
     84 H           3.8814    5.7915    0.0000 H       1  UNL1        0.0342
     85 H          10.9225    5.3477    0.0000 H       1  UNL1        0.0342
     86 H          10.9225    6.2246    0.0000 H       1  UNL1        0.0342
     87 H          10.0457    6.2246    0.0000 H       1  UNL1        0.0342
     88 H           5.7809   -2.8804    0.0000 H       1  UNL1        0.0689
     89 H           3.8424   -3.0221    0.0000 H       1  UNL1        0.0626
     90 H           5.9663   -4.2478    0.0000 H       1  UNL1        0.0623
     91 H           3.1858   -4.6248    0.0000 H       1  UNL1        0.0623
     92 H           6.1839   -5.8532    0.0000 H       1  UNL1        0.0618
     93 H           3.4034   -6.2301    0.0000 H       1  UNL1        0.0618
     94 H           4.9025   -6.8443    0.0000 H       1  UNL1        0.0618
@<TRIPOS>BOND
     1    16     1    1
     2     1    70    1
     3    17     2    1
     4     2    32    1
     5    18     3    1
     6     3    33    1
     7    20     4    1
     8     4    34    1
     9    25     5    1
    10     5    36    1
    11    26     6    1
    12     6    35    1
    13     7    32    2
    14     8    33    2
    15     9    34    2
    16    10    35    2
    17    11    36    2
    18    12    13    1
    19    12    17    1
    20    12    18    1
    21    12    24    1
    22    13    16    1
    23    13    22    1
    24    13    49    1
    25    14    15    1
    26    14    16    1
    27    14    21    1
    28    14    50    1
    29    15    19    1
    30    15    28    1
    31    15    29    1
    32    16    51    1
    33    17    20    1
    34    17    52    1
    35    18    23    1
    36    18    53    1
    37    19    20    1
    38    19    27    2
    39    20    54    1
    40    21    26    1
    41    21    55    1
    42    21    56    1
    43    22    25    1
    44    22    30    2
    45    23    25    1
    46    23    57    1
    47    23    58    1
    48    24    59    1
    49    24    60    1
    50    24    61    1
    51    25    62    1
    52    26    27    1
    53    26    63    1
    54    27    31    1
    55    28    64    1
    56    28    65    1
    57    28    66    1
    58    29    67    1
    59    29    68    1
    60    29    69    1
    61    30    71    1
    62    30    72    1
    63    31    73    1
    64    31    74    1
    65    31    75    1
    66    32    37    1
    67    33    38    1
    68    34    39    1
    69    35    40    1
    70    36    41    1
    71    37    76    1
    72    37    77    1
    73    37    78    1
    74    38    79    1
    75    38    80    1
    76    38    81    1
    77    39    82    1
    78    39    83    1
    79    39    84    1
    80    40    85    1
    81    40    86    1
    82    40    87    1
    83    41    42    2
    84    41    88    1
    85    42    43    1
    86    42    89    1
    87    43    44   ar
    88    43    45   ar
    89    44    46   ar
    90    44    90    1
    91    45    47   ar
    92    45    91    1
    93    46    48   ar
    94    46    92    1
    95    47    48   ar
    96    47    93    1
    97    48    94    1
