@<TRIPOS>MOLECULE
IMPHY010408
 73 77 0 0 0
SMALL
GASTEIGER

@<TRIPOS>ATOM
      1 O           6.8671   -0.9276    0.0000 O.3     1  UNL1       -0.3366
      2 O           5.1350   -0.9276    0.0000 O.3     1  UNL1       -0.3405
      3 O           7.7331    1.5724    0.0000 O.3     1  UNL1       -0.3339
      4 O           8.5991    0.0725    0.0000 O.3     1  UNL1       -0.4532
      5 O           5.1350    0.0725    0.0000 O.3     1  UNL1       -0.3863
      6 O           5.1350    2.0724    0.0000 O.3     1  UNL1       -0.3866
      7 O           6.8671   -2.9276    0.0000 O.3     1  UNL1       -0.3841
      8 O           5.1350   -3.9276    0.0000 O.3     1  UNL1       -0.3864
      9 O           3.4030   -2.9276    0.0000 O.3     1  UNL1       -0.3865
     10 O           2.5369   -1.4276    0.0000 O.3     1  UNL1       -0.3924
     11 O          11.1972    0.5724    0.0000 O.2     1  UNL1       -0.4507
     12 O           8.5991    2.0724    0.0000 O.2     1  UNL1       -0.2830
     13 O           9.4434    3.6039    0.0000 O.3     1  UNL1       -0.5058
     14 O          12.9832    3.6176    0.0000 O.3     1  UNL1       -0.5065
     15 O          12.0632   -2.9276    0.0000 O.3     1  UNL1       -0.5033
     16 O          10.3312   -3.9276    0.0000 O.3     1  UNL1       -0.5033
     17 C           6.8671    0.0725    0.0000 C.3     1  UNL1        0.1519
     18 C           6.0010    0.5724    0.0000 C.3     1  UNL1        0.1155
     19 C           6.0010   -1.4276    0.0000 C.3     1  UNL1        0.1886
     20 C           6.0010    1.5724    0.0000 C.3     1  UNL1        0.1096
     21 C           6.0010   -2.4276    0.0000 C.3     1  UNL1        0.1341
     22 C           5.1350   -2.9276    0.0000 C.3     1  UNL1        0.1141
     23 C           7.7331    0.5724    0.0000 C.3     1  UNL1        0.2314
     24 C           4.2690   -2.4276    0.0000 C.3     1  UNL1        0.1119
     25 C           6.8671    2.0724    0.0000 C.3     1  UNL1        0.0883
     26 C           4.2690   -1.4276    0.0000 C.3     1  UNL1        0.1130
     27 C           3.4030   -0.9276    0.0000 C.3     1  UNL1        0.0730
     28 C           6.8671    3.0724    0.0000 C.3     1  UNL1       -0.0360
     29 C           9.4651    0.5724    0.0000 C.ar    1  UNL1        0.2138
     30 C          10.3312    0.0725    0.0000 C.ar    1  UNL1        0.1810
     31 C           9.4651    1.5724    0.0000 C.ar    1  UNL1        0.2382
     32 C          10.3312    2.0724    0.0000 C.ar    1  UNL1        0.1092
     33 C          10.3312   -0.9276    0.0000 C.ar    1  UNL1        0.0247
     34 C          11.1972    1.5724    0.0000 C.ar    1  UNL1        0.1465
     35 C          10.3151    3.1140    0.0000 C.ar    1  UNL1        0.1348
     36 C          12.1072    2.0793    0.0000 C.ar    1  UNL1        0.0231
     37 C          11.1972   -1.4276    0.0000 C.ar    1  UNL1       -0.0057
     38 C           9.4651   -1.4276    0.0000 C.ar    1  UNL1       -0.0473
     39 C          11.2131    3.6417    0.0000 C.ar    1  UNL1        0.0223
     40 C          12.1152    3.1209    0.0000 C.ar    1  UNL1        0.1239
     41 C          11.1972   -2.4276    0.0000 C.ar    1  UNL1        0.1589
     42 C           9.4651   -2.4276    0.0000 C.ar    1  UNL1       -0.0159
     43 C          10.3312   -2.9276    0.0000 C.ar    1  UNL1        0.1583
     44 H           7.4040   -0.2376    0.0000 H       1  UNL1        0.0687
     45 H           6.0010   -0.0475    0.0000 H       1  UNL1        0.0648
     46 H           6.5380   -1.7376    0.0000 H       1  UNL1        0.0938
     47 H           5.4641    1.2624    0.0000 H       1  UNL1        0.0646
     48 H           6.0010   -3.0476    0.0000 H       1  UNL1        0.0671
     49 H           4.5981   -3.2376    0.0000 H       1  UNL1        0.0648
     50 H           8.2700    0.8824    0.0000 H       1  UNL1        0.1084
     51 H           3.7320   -2.1176    0.0000 H       1  UNL1        0.0647
     52 H           7.4040    2.3824    0.0000 H       1  UNL1        0.0621
     53 H           4.2690   -0.8076    0.0000 H       1  UNL1        0.0647
     54 H           3.8015   -0.4526    0.0000 H       1  UNL1        0.0584
     55 H           3.0044   -0.4526    0.0000 H       1  UNL1        0.0584
     56 H           7.4871    3.0724    0.0000 H       1  UNL1        0.0255
     57 H           6.8671    3.6924    0.0000 H       1  UNL1        0.0255
     58 H           6.2471    3.0724    0.0000 H       1  UNL1        0.0255
     59 H           4.5981    0.3824    0.0000 H       1  UNL1        0.2100
     60 H           5.1350    2.6924    0.0000 H       1  UNL1        0.2100
     61 H           7.4040   -2.6176    0.0000 H       1  UNL1        0.2101
     62 H           5.6720   -4.2376    0.0000 H       1  UNL1        0.2100
     63 H           3.4030   -3.5476    0.0000 H       1  UNL1        0.2100
     64 H           2.0000   -1.1176    0.0000 H       1  UNL1        0.2095
     65 H          12.6405    1.7631    0.0000 H       1  UNL1        0.0691
     66 H          11.7341   -1.1176    0.0000 H       1  UNL1        0.0662
     67 H           8.9282   -1.1176    0.0000 H       1  UNL1        0.0626
     68 H          11.2108    4.2617    0.0000 H       1  UNL1        0.0691
     69 H           8.9282   -2.7376    0.0000 H       1  UNL1        0.0655
     70 H           9.4362    4.2239    0.0000 H       1  UNL1        0.2922
     71 H          12.9856    4.2376    0.0000 H       1  UNL1        0.2921
     72 H          12.6002   -2.6176    0.0000 H       1  UNL1        0.2923
     73 H          10.8681   -4.2376    0.0000 H       1  UNL1        0.2923
@<TRIPOS>BOND
     1    17     1    1
     2    19     1    1
     3     2    19    1
     4     2    26    1
     5     3    23    1
     6     3    25    1
     7    23     4    1
     8     4    29    1
     9    18     5    1
    10     5    59    1
    11    20     6    1
    12     6    60    1
    13    21     7    1
    14     7    61    1
    15    22     8    1
    16     8    62    1
    17    24     9    1
    18     9    63    1
    19    10    27    1
    20    10    64    1
    21    11    30   ar
    22    11    34   ar
    23    12    31    2
    24    13    35    1
    25    13    70    1
    26    14    40    1
    27    14    71    1
    28    15    41    1
    29    15    72    1
    30    16    43    1
    31    16    73    1
    32    17    18    1
    33    17    23    1
    34    17    44    1
    35    18    20    1
    36    18    45    1
    37    19    21    1
    38    19    46    1
    39    20    25    1
    40    20    47    1
    41    21    22    1
    42    21    48    1
    43    22    24    1
    44    22    49    1
    45    23    50    1
    46    24    26    1
    47    24    51    1
    48    25    28    1
    49    25    52    1
    50    26    27    1
    51    26    53    1
    52    27    54    1
    53    27    55    1
    54    28    56    1
    55    28    57    1
    56    28    58    1
    57    29    30   ar
    58    29    31   ar
    59    30    33    1
    60    31    32   ar
    61    32    34   ar
    62    32    35   ar
    63    33    37   ar
    64    33    38   ar
    65    34    36   ar
    66    35    39   ar
    67    36    40   ar
    68    36    65    1
    69    37    41   ar
    70    37    66    1
    71    38    42   ar
    72    38    67    1
    73    39    40   ar
    74    39    68    1
    75    41    43   ar
    76    42    43   ar
    77    42    69    1
