@<TRIPOS>MOLECULE
IMPHY017639
 24 24 0 0 0
SMALL
GASTEIGER

@<TRIPOS>ATOM
      1 C           3.7601    0.6739    0.0000 C.3     1  UNL1       -0.0410
      2 C           2.9511    0.0861    0.0000 C.3     1  UNL1       -0.0410
      3 C           4.2601   -0.8649    0.0000 C.3     1  UNL1       -0.0434
      4 C           4.5691    0.0861    0.0000 C.3     1  UNL1       -0.0476
      5 C           3.2601   -0.8649    0.0000 C.3     1  UNL1       -0.0476
      6 C           3.7601    1.6739    0.0000 C.3     1  UNL1       -0.0622
      7 C           2.0000    0.3952    0.0000 C.3     1  UNL1       -0.0622
      8 C           4.8479   -1.6739    0.0000 C.3     1  UNL1       -0.0624
      9 H           4.3125    0.9554    0.0000 H       1  UNL1        0.0301
     10 H           2.5126   -0.3523    0.0000 H       1  UNL1        0.0301
     11 H           4.8724   -0.7679    0.0000 H       1  UNL1        0.0298
     12 H           5.1355   -0.1660    0.0000 H       1  UNL1        0.0271
     13 H           4.8791    0.6231    0.0000 H       1  UNL1        0.0271
     14 H           2.6536   -0.9938    0.0000 H       1  UNL1        0.0271
     15 H           3.3249   -1.4815    0.0000 H       1  UNL1        0.0271
     16 H           4.3801    1.6739    0.0000 H       1  UNL1        0.0233
     17 H           3.7601    2.2939    0.0000 H       1  UNL1        0.0233
     18 H           3.1401    1.6739    0.0000 H       1  UNL1        0.0233
     19 H           2.1916    0.9848    0.0000 H       1  UNL1        0.0233
     20 H           1.4103    0.5868    0.0000 H       1  UNL1        0.0233
     21 H           1.8084   -0.1945    0.0000 H       1  UNL1        0.0233
     22 H           4.3463   -2.0384    0.0000 H       1  UNL1        0.0232
     23 H           5.2123   -2.1755    0.0000 H       1  UNL1        0.0232
     24 H           5.3494   -1.3095    0.0000 H       1  UNL1        0.0232
@<TRIPOS>BOND
     1     1     2    1
     2     1     4    1
     3     1     6    1
     4     1     9    1
     5     2     5    1
     6     2     7    1
     7     2    10    1
     8     3     4    1
     9     3     5    1
    10     3     8    1
    11     3    11    1
    12     4    12    1
    13     4    13    1
    14     5    14    1
    15     5    15    1
    16     6    16    1
    17     6    17    1
    18     6    18    1
    19     7    19    1
    20     7    20    1
    21     7    21    1
    22     8    22    1
    23     8    23    1
    24     8    24    1
