@<TRIPOS>MOLECULE
IMPHY003453
 66 68 0 0 0
SMALL
GASTEIGER

@<TRIPOS>ATOM
      1 O           5.8671    0.7306    0.0000 O.3     1  UNL1       -0.3362
      2 O           6.8671   -0.2694    0.0000 O.3     1  UNL1       -0.3125
      3 O           8.5613    1.0907    0.0000 O.3     1  UNL1       -0.3391
      4 O          10.5123    0.7817    0.0000 O.3     1  UNL1       -0.3363
      5 O           5.1350   -0.2694    0.0000 O.3     1  UNL1       -0.3404
      6 O           8.1271    1.9906    0.0000 O.3     1  UNL1       -0.3837
      7 O           6.3671    3.2694    0.0000 O.3     1  UNL1       -0.3864
      8 O           8.2522   -0.4784    0.0000 O.3     1  UNL1       -0.3837
      9 O          10.0123   -1.7572    0.0000 O.3     1  UNL1       -0.3864
     10 O           6.8671   -2.2694    0.0000 O.3     1  UNL1       -0.3841
     11 O           5.1350   -3.2694    0.0000 O.3     1  UNL1       -0.3864
     12 O           3.4030   -2.2694    0.0000 O.3     1  UNL1       -0.3865
     13 O          10.3783    2.2817    0.0000 O.3     1  UNL1       -0.3896
     14 O           4.3991    2.9688    0.0000 O.3     1  UNL1       -0.3924
     15 O          12.5155    0.1907    0.0000 O.3     1  UNL1       -0.3924
     16 O           2.5369   -0.7694    0.0000 O.3     1  UNL1       -0.3924
     17 C           6.8671    0.7306    0.0000 C.3     1  UNL1        0.2256
     18 C           7.1761    1.6816    0.0000 C.3     1  UNL1        0.1395
     19 C           6.3671    2.2694    0.0000 C.3     1  UNL1        0.1145
     20 C           9.5123    0.7817    0.0000 C.3     1  UNL1        0.2231
     21 C           5.5580    1.6816    0.0000 C.3     1  UNL1        0.1134
     22 C           7.8181    0.4216    0.0000 C.3     1  UNL1        0.1078
     23 C           9.2033   -0.1694    0.0000 C.3     1  UNL1        0.1394
     24 C          10.0123   -0.7572    0.0000 C.3     1  UNL1        0.1145
     25 C           6.0010   -0.7694    0.0000 C.3     1  UNL1        0.1912
     26 C          10.8213   -0.1694    0.0000 C.3     1  UNL1        0.1134
     27 C           6.0010   -1.7694    0.0000 C.3     1  UNL1        0.1342
     28 C           5.1350   -2.2694    0.0000 C.3     1  UNL1        0.1141
     29 C           4.2690   -1.7694    0.0000 C.3     1  UNL1        0.1119
     30 C           4.2690   -0.7694    0.0000 C.3     1  UNL1        0.1130
     31 C           9.5123    1.7817    0.0000 C.3     1  UNL1        0.1008
     32 C           4.6070    1.9906    0.0000 C.3     1  UNL1        0.0730
     33 C          11.7724   -0.4784    0.0000 C.3     1  UNL1        0.0730
     34 C           3.4030   -0.2694    0.0000 C.3     1  UNL1        0.0730
     35 H           7.6145    1.2432    0.0000 H       1  UNL1        0.0675
     36 H           6.9195    2.5509    0.0000 H       1  UNL1        0.0648
     37 H           5.1196    1.2432    0.0000 H       1  UNL1        0.0647
     38 H           7.5270   -0.1259    0.0000 H       1  UNL1        0.0616
     39 H           8.3067    0.0399    0.0000 H       1  UNL1        0.0616
     40 H           8.7649    0.2690    0.0000 H       1  UNL1        0.0675
     41 H          10.5647   -1.0386    0.0000 H       1  UNL1        0.0648
     42 H           6.0010   -0.1494    0.0000 H       1  UNL1        0.0939
     43 H          11.2597    0.2690    0.0000 H       1  UNL1        0.0647
     44 H           6.0010   -2.3894    0.0000 H       1  UNL1        0.0671
     45 H           4.5981   -2.5794    0.0000 H       1  UNL1        0.0648
     46 H           4.2690   -2.3894    0.0000 H       1  UNL1        0.0647
     47 H           4.2690   -0.1494    0.0000 H       1  UNL1        0.0647
     48 H           9.3003    2.3643    0.0000 H       1  UNL1        0.0612
     49 H           8.9017    1.6740    0.0000 H       1  UNL1        0.0612
     50 H           3.9874    1.9690    0.0000 H       1  UNL1        0.0584
     51 H           4.5207    1.3767    0.0000 H       1  UNL1        0.0584
     52 H           8.2560    2.5971    0.0000 H       1  UNL1        0.2101
     53 H          11.4813   -1.0258    0.0000 H       1  UNL1        0.0584
     54 H          12.2610   -0.8601    0.0000 H       1  UNL1        0.0584
     55 H           5.8301    3.5794    0.0000 H       1  UNL1        0.2100
     56 H           3.8015    0.2055    0.0000 H       1  UNL1        0.0584
     57 H           3.0044    0.2055    0.0000 H       1  UNL1        0.0584
     58 H           8.1233   -1.0849    0.0000 H       1  UNL1        0.2101
     59 H          10.5493   -2.0672    0.0000 H       1  UNL1        0.2100
     60 H           6.8671   -2.8894    0.0000 H       1  UNL1        0.2101
     61 H           4.5981   -3.5794    0.0000 H       1  UNL1        0.2100
     62 H           3.4030   -2.8894    0.0000 H       1  UNL1        0.2100
     63 H          10.3783    2.9017    0.0000 H       1  UNL1        0.2096
     64 H           3.8094    3.1604    0.0000 H       1  UNL1        0.2095
     65 H          13.1052   -0.0009    0.0000 H       1  UNL1        0.2095
     66 H           2.0000   -0.4594    0.0000 H       1  UNL1        0.2095
@<TRIPOS>BOND
     1     1    17    1
     2     1    21    1
     3    17     2    1
     4    25     2    1
     5    20     3    1
     6     3    22    1
     7     4    20    1
     8     4    26    1
     9     5    25    1
    10     5    30    1
    11    18     6    1
    12     6    52    1
    13    19     7    1
    14     7    55    1
    15    23     8    1
    16     8    58    1
    17    24     9    1
    18     9    59    1
    19    27    10    1
    20    10    60    1
    21    28    11    1
    22    11    61    1
    23    29    12    1
    24    12    62    1
    25    13    31    1
    26    13    63    1
    27    14    32    1
    28    14    64    1
    29    15    33    1
    30    15    65    1
    31    16    34    1
    32    16    66    1
    33    17    18    1
    34    17    22    1
    35    18    19    1
    36    18    35    1
    37    19    21    1
    38    19    36    1
    39    20    23    1
    40    20    31    1
    41    21    32    1
    42    21    37    1
    43    22    38    1
    44    22    39    1
    45    23    24    1
    46    23    40    1
    47    24    26    1
    48    24    41    1
    49    25    27    1
    50    25    42    1
    51    26    33    1
    52    26    43    1
    53    27    28    1
    54    27    44    1
    55    28    29    1
    56    28    45    1
    57    29    30    1
    58    29    46    1
    59    30    34    1
    60    30    47    1
    61    31    48    1
    62    31    49    1
    63    32    50    1
    64    32    51    1
    65    33    53    1
    66    33    54    1
    67    34    56    1
    68    34    57    1
