@<TRIPOS>MOLECULE
IMPHY000087
 40 41 0 0 0
SMALL
GASTEIGER

@<TRIPOS>ATOM
      1 O           9.8622    0.4827    0.0000 O.3     1  UNL1       -0.4517
      2 O           5.5321   -0.0173    0.0000 O.2     1  UNL1       -0.4258
      3 O          10.7282   -1.0173    0.0000 O.2     1  UNL1       -0.2508
      4 O           4.6660   -1.5173    0.0000 O.2     1  UNL1       -0.2445
      5 C          12.4603   -0.0173    0.0000 C.3     1  UNL1       -0.0367
      6 C          11.5942    0.4827    0.0000 C.3     1  UNL1        0.0473
      7 C          13.3263    0.4827    0.0000 C.3     1  UNL1       -0.0622
      8 C          12.4603   -1.0173    0.0000 C.3     1  UNL1       -0.0622
      9 C          10.7282   -0.0173    0.0000 C.2     1  UNL1        0.3082
     10 C           3.8000    0.9827    0.0000 C.ar    1  UNL1       -0.0079
     11 C           3.8000   -0.0173    0.0000 C.ar    1  UNL1        0.0666
     12 C           5.5321    0.9827    0.0000 C.ar    1  UNL1        0.1214
     13 C           4.6660    1.4827    0.0000 C.ar    1  UNL1       -0.0146
     14 C           2.9061    1.5173    0.0000 C.ar    1  UNL1       -0.0537
     15 C           2.9061   -0.5520    0.0000 C.ar    1  UNL1       -0.0472
     16 C           6.3981    1.4827    0.0000 C.3     1  UNL1        0.0674
     17 C           4.6660   -0.5173    0.0000 C.ar    1  UNL1        0.3447
     18 C           2.0000    1.0035    0.0000 C.ar    1  UNL1       -0.0612
     19 C           2.0000   -0.0381    0.0000 C.ar    1  UNL1       -0.0609
     20 C           8.9962   -0.0173    0.0000 C.3     1  UNL1        0.1528
     21 C           7.2641    0.9827    0.0000 C.1     1  UNL1       -0.0911
     22 C           8.1301    0.4827    0.0000 C.1     1  UNL1       -0.0609
     23 H          12.9972   -0.3273    0.0000 H       1  UNL1        0.0301
     24 H          11.9928    0.9576    0.0000 H       1  UNL1        0.0380
     25 H          11.1957    0.9576    0.0000 H       1  UNL1        0.0380
     26 H          11.8403   -1.0173    0.0000 H       1  UNL1        0.0232
     27 H          13.6363   -0.0543    0.0000 H       1  UNL1        0.0232
     28 H          13.8632    0.7927    0.0000 H       1  UNL1        0.0232
     29 H          13.0163    1.0196    0.0000 H       1  UNL1        0.0232
     30 H          12.4603   -1.6373    0.0000 H       1  UNL1        0.0232
     31 H          13.0803   -1.0173    0.0000 H       1  UNL1        0.0232
     32 H           4.6660    2.1027    0.0000 H       1  UNL1        0.0657
     33 H           2.9132    2.1373    0.0000 H       1  UNL1        0.0624
     34 H           2.9132   -1.1720    0.0000 H       1  UNL1        0.0626
     35 H           6.7966    1.9576    0.0000 H       1  UNL1        0.0477
     36 H           5.9996    1.9576    0.0000 H       1  UNL1        0.0477
     37 H           1.4643    1.3156    0.0000 H       1  UNL1        0.0618
     38 H           1.4643   -0.3502    0.0000 H       1  UNL1        0.0618
     39 H           8.5976   -0.4923    0.0000 H       1  UNL1        0.0838
     40 H           9.3947   -0.4923    0.0000 H       1  UNL1        0.0838
@<TRIPOS>BOND
     1     1     9    1
     2     1    20    1
     3     2    12   ar
     4     2    17   ar
     5     3     9    2
     6     4    17    2
     7     5     6    1
     8     5     7    1
     9     5     8    1
    10     5    23    1
    11     6     9    1
    12     6    24    1
    13     6    25    1
    14     7    27    1
    15     7    28    1
    16     7    29    1
    17     8    26    1
    18     8    30    1
    19     8    31    1
    20    10    11   ar
    21    10    13   ar
    22    10    14   ar
    23    11    15   ar
    24    11    17   ar
    25    12    13   ar
    26    12    16    1
    27    13    32    1
    28    14    18   ar
    29    14    33    1
    30    15    19   ar
    31    15    34    1
    32    16    21    1
    33    16    35    1
    34    16    36    1
    35    18    19   ar
    36    18    37    1
    37    19    38    1
    38    20    22    1
    39    20    39    1
    40    20    40    1
    41    21    22    3
