@<TRIPOS>MOLECULE
IMPHY016489
 40 42 0 0 0
SMALL
GASTEIGER

@<TRIPOS>ATOM
      1 O           2.9176    2.0424    0.0000 O.3     1  UNL1       -0.3875
      2 C           4.6660   -0.9922    0.0000 C.3     1  UNL1       -0.0162
      3 C           5.5323   -1.4926    0.0000 C.3     1  UNL1       -0.0250
      4 C           5.5321   -0.4922    0.0000 C.3     1  UNL1       -0.0255
      5 C           3.8000   -0.4922    0.0000 C.3     1  UNL1       -0.0087
      6 C           5.5321    0.5078    0.0000 C.3     1  UNL1       -0.0305
      7 C           3.8000   -1.4922    0.0000 C.3     1  UNL1       -0.0582
      8 C           2.9061   -1.0268    0.0000 C.3     1  UNL1       -0.0367
      9 C           3.8000    0.5078    0.0000 C.2     1  UNL1       -0.0415
     10 C           6.5323   -1.4926    0.0000 C.3     1  UNL1       -0.0590
     11 C           5.0323   -2.3586    0.0000 C.3     1  UNL1       -0.0590
     12 C           4.6660    1.0078    0.0000 C.2     1  UNL1       -0.0818
     13 C           2.9061    1.0425    0.0000 C.3     1  UNL1        0.0765
     14 C           2.0000   -0.5130    0.0000 C.3     1  UNL1       -0.0473
     15 C           2.0000    0.5287    0.0000 C.3     1  UNL1       -0.0227
     16 C           2.9176   -2.0268    0.0000 C.3     1  UNL1       -0.0619
     17 H           6.3821   -0.4920    0.0000 H       1  UNL1        0.0315
     18 H           4.5361   -0.0672    0.0000 H       1  UNL1        0.0355
     19 H           6.1426    0.4002    0.0000 H       1  UNL1        0.0310
     20 H           5.7441    1.0904    0.0000 H       1  UNL1        0.0310
     21 H           3.4900   -0.9552    0.0000 H       1  UNL1        0.0236
     22 H           3.2631   -1.8022    0.0000 H       1  UNL1        0.0236
     23 H           4.1100   -2.0291    0.0000 H       1  UNL1        0.0236
     24 H           2.3721   -1.3420    0.0000 H       1  UNL1        0.0304
     25 H           6.5323   -2.1126    0.0000 H       1  UNL1        0.0235
     26 H           7.1523   -1.4926    0.0000 H       1  UNL1        0.0235
     27 H           6.5323   -0.8726    0.0000 H       1  UNL1        0.0235
     28 H           4.4954   -2.0486    0.0000 H       1  UNL1        0.0235
     29 H           4.7223   -2.8956    0.0000 H       1  UNL1        0.0235
     30 H           5.5692   -2.6686    0.0000 H       1  UNL1        0.0235
     31 H           4.6660    1.6278    0.0000 H       1  UNL1        0.0573
     32 H           2.3721    1.3577    0.0000 H       1  UNL1        0.0640
     33 H           1.3891   -0.4069    0.0000 H       1  UNL1        0.0269
     34 H           1.7909   -1.0967    0.0000 H       1  UNL1        0.0269
     35 H           1.7909    1.1124    0.0000 H       1  UNL1        0.0293
     36 H           1.3891    0.4226    0.0000 H       1  UNL1        0.0293
     37 H           2.2977   -2.0339    0.0000 H       1  UNL1        0.0233
     38 H           2.9248   -2.6467    0.0000 H       1  UNL1        0.0233
     39 H           3.5376   -2.0196    0.0000 H       1  UNL1        0.0233
     40 H           2.3843    2.3586    0.0000 H       1  UNL1        0.2102
@<TRIPOS>BOND
     1    13     1    1
     2     1    40    1
     3     2     3    1
     4     2     4    1
     5     2     5    1
     6     2     7    1
     7     3     4    1
     8     3    10    1
     9     3    11    1
    10     4     6    1
    11     4    17    1
    12     5     8    1
    13     5     9    1
    14     5    18    1
    15     6    12    1
    16     6    19    1
    17     6    20    1
    18     7    21    1
    19     7    22    1
    20     7    23    1
    21     8    14    1
    22     8    16    1
    23     8    24    1
    24     9    12    2
    25     9    13    1
    26    10    25    1
    27    10    26    1
    28    10    27    1
    29    11    28    1
    30    11    29    1
    31    11    30    1
    32    12    31    1
    33    13    15    1
    34    13    32    1
    35    14    15    1
    36    14    33    1
    37    14    34    1
    38    15    35    1
    39    15    36    1
    40    16    37    1
    41    16    38    1
    42    16    39    1
