@<TRIPOS>MOLECULE
IMPHY011030
 35 36 0 0 0
SMALL
GASTEIGER

@<TRIPOS>ATOM
      1 O           4.5981    0.2500    0.0000 O.3     1  UNL1       -0.4612
      2 O           2.8660    0.2500    0.0000 O.2     1  UNL1       -0.2456
      3 C           5.4641    1.7500    0.0000 C.3     1  UNL1        0.0068
      4 C           5.4641    2.7500    0.0000 C.ar    1  UNL1       -0.0442
      5 C           4.5981    1.2500    0.0000 C.3     1  UNL1        0.0967
      6 C           6.3301    3.2500    0.0000 C.ar    1  UNL1       -0.0585
      7 C           4.5981    3.2500    0.0000 C.ar    1  UNL1       -0.0585
      8 C           6.3301    4.2500    0.0000 C.ar    1  UNL1       -0.0615
      9 C           4.5981    4.2500    0.0000 C.ar    1  UNL1       -0.0615
     10 C           5.4641    4.7500    0.0000 C.ar    1  UNL1       -0.0617
     11 C           2.8660   -2.7500    0.0000 C.ar    1  UNL1       -0.0248
     12 C           3.7320   -0.2500    0.0000 C.2     1  UNL1        0.3320
     13 C           2.8660   -1.7500    0.0000 C.2     1  UNL1       -0.0478
     14 C           3.7320   -1.2500    0.0000 C.2     1  UNL1        0.0231
     15 C           2.0000   -3.2500    0.0000 C.ar    1  UNL1       -0.0546
     16 C           3.7320   -3.2500    0.0000 C.ar    1  UNL1       -0.0546
     17 C           2.0000   -4.2500    0.0000 C.ar    1  UNL1       -0.0612
     18 C           3.7320   -4.2500    0.0000 C.ar    1  UNL1       -0.0612
     19 C           2.8660   -4.7500    0.0000 C.ar    1  UNL1       -0.0617
     20 H           5.6762    1.1674    0.0000 H       1  UNL1        0.0346
     21 H           6.0747    1.8577    0.0000 H       1  UNL1        0.0346
     22 H           4.3860    1.8326    0.0000 H       1  UNL1        0.0701
     23 H           3.9875    1.1423    0.0000 H       1  UNL1        0.0701
     24 H           6.8671    2.9400    0.0000 H       1  UNL1        0.0620
     25 H           4.0611    2.9400    0.0000 H       1  UNL1        0.0620
     26 H           6.8671    4.5600    0.0000 H       1  UNL1        0.0618
     27 H           4.0611    4.5600    0.0000 H       1  UNL1        0.0618
     28 H           5.4641    5.3700    0.0000 H       1  UNL1        0.0618
     29 H           2.3291   -1.4400    0.0000 H       1  UNL1        0.0626
     30 H           4.2690   -1.5600    0.0000 H       1  UNL1        0.0689
     31 H           1.4631   -2.9400    0.0000 H       1  UNL1        0.0623
     32 H           4.2690   -2.9400    0.0000 H       1  UNL1        0.0623
     33 H           1.4631   -4.5600    0.0000 H       1  UNL1        0.0618
     34 H           4.2690   -4.5600    0.0000 H       1  UNL1        0.0618
     35 H           2.8660   -5.3700    0.0000 H       1  UNL1        0.0618
@<TRIPOS>BOND
     1     1     5    1
     2     1    12    1
     3     2    12    2
     4     3     4    1
     5     3     5    1
     6     3    20    1
     7     3    21    1
     8     4     6   ar
     9     4     7   ar
    10     5    22    1
    11     5    23    1
    12     6     8   ar
    13     6    24    1
    14     7     9   ar
    15     7    25    1
    16     8    10   ar
    17     8    26    1
    18     9    10   ar
    19     9    27    1
    20    10    28    1
    21    11    13    1
    22    11    15   ar
    23    11    16   ar
    24    12    14    1
    25    13    14    2
    26    13    29    1
    27    14    30    1
    28    15    17   ar
    29    15    31    1
    30    16    18   ar
    31    16    32    1
    32    17    19   ar
    33    17    33    1
    34    18    19   ar
    35    18    34    1
    36    19    35    1
