@<TRIPOS>MOLECULE
IMPHY002225
 60 64 0 0 0
SMALL
GASTEIGER

@<TRIPOS>ATOM
      1 N           9.0503    2.3457    0.0000 N.3     1  UNL1       -0.3127
      2 N           2.8641   -2.3457    0.0000 N.3     1  UNL1       -0.3159
      3 C           8.2572    0.7066    0.0000 C.3     1  UNL1       -0.0094
      4 C           8.2572   -0.2934    0.0000 C.3     1  UNL1       -0.0305
      5 C           9.2034    1.0114    0.0000 C.3     1  UNL1       -0.0188
      6 C           7.3912   -0.7934    0.0000 C.3     1  UNL1       -0.0306
      7 C           6.5251   -0.2934    0.0000 C.3     1  UNL1       -0.0285
      8 C           7.3912    1.2066    0.0000 C.3     1  UNL1       -0.0454
      9 C           9.2034   -0.5981    0.0000 C.3     1  UNL1       -0.0491
     10 C           9.7870    0.2066    0.0000 C.3     1  UNL1       -0.0480
     11 C           8.1590    1.6899    0.0000 C.3     1  UNL1        0.0024
     12 C           6.5251    0.7066    0.0000 C.3     1  UNL1       -0.0486
     13 C           5.6151   -0.8002    0.0000 C.3     1  UNL1       -0.0079
     14 C           9.6975    1.8672    0.0000 C.3     1  UNL1        0.0082
     15 C           7.4072   -1.8349    0.0000 C.3     1  UNL1       -0.0311
     16 C           5.6071   -1.8418    0.0000 C.2     1  UNL1       -0.0658
     17 C           4.6883   -0.2361    0.0000 C.3     1  UNL1       -0.0422
     18 C           6.5092   -2.3626    0.0000 C.2     1  UNL1       -0.0839
     19 C           5.6228    0.1997    0.0000 C.3     1  UNL1       -0.0556
     20 C          10.6488    2.1754    0.0000 C.3     1  UNL1       -0.0494
     21 C           4.6717   -2.3916    0.0000 C.3     1  UNL1       -0.0158
     22 C           3.7404   -0.7641    0.0000 C.3     1  UNL1       -0.0365
     23 C           3.7320   -1.8490    0.0000 C.3     1  UNL1        0.0111
     24 C           2.0000   -1.8424    0.0000 C.3     1  UNL1       -0.0155
     25 H           8.3471   -1.1386    0.0000 H       1  UNL1        0.0309
     26 H          10.0522    1.0555    0.0000 H       1  UNL1        0.0322
     27 H           8.1305   -1.2127    0.0000 H       1  UNL1        0.0309
     28 H           7.2612    0.1316    0.0000 H       1  UNL1        0.0312
     29 H           7.7897    1.6816    0.0000 H       1  UNL1        0.0271
     30 H           6.9926    1.6816    0.0000 H       1  UNL1        0.0271
     31 H           8.9524   -1.1650    0.0000 H       1  UNL1        0.0268
     32 H           9.7408   -0.9073    0.0000 H       1  UNL1        0.0268
     33 H          10.2479   -0.2081    0.0000 H       1  UNL1        0.0269
     34 H          10.2479    0.6214    0.0000 H       1  UNL1        0.0269
     35 H           7.8859    2.2466    0.0000 H       1  UNL1        0.0430
     36 H           7.5628    1.5199    0.0000 H       1  UNL1        0.0430
     37 H           6.3131    1.2892    0.0000 H       1  UNL1        0.0268
     38 H           5.9145    0.5990    0.0000 H       1  UNL1        0.0268
     39 H           9.7973    2.4791    0.0000 H       1  UNL1        0.0460
     40 H           7.6252   -2.4153    0.0000 H       1  UNL1        0.0310
     41 H           8.0164   -1.7194    0.0000 H       1  UNL1        0.0310
     42 H           9.0519    2.9657    0.0000 H       1  UNL1        0.1222
     43 H           5.0965    0.2305    0.0000 H       1  UNL1        0.0274
     44 H           4.2984    0.2459    0.0000 H       1  UNL1        0.0274
     45 H           6.5116   -2.9826    0.0000 H       1  UNL1        0.0572
     46 H           6.2428    0.1950    0.0000 H       1  UNL1        0.0238
     47 H           5.6276    0.8197    0.0000 H       1  UNL1        0.0238
     48 H           5.0028    0.2045    0.0000 H       1  UNL1        0.0238
     49 H          10.8399    1.5855    0.0000 H       1  UNL1        0.0245
     50 H          11.2386    2.3664    0.0000 H       1  UNL1        0.0245
     51 H          10.4577    2.7652    0.0000 H       1  UNL1        0.0245
     52 H           4.2744   -2.8675    0.0000 H       1  UNL1        0.0325
     53 H           5.0726   -2.8644    0.0000 H       1  UNL1        0.0325
     54 H           3.5358   -0.1788    0.0000 H       1  UNL1        0.0281
     55 H           3.1288   -0.8655    0.0000 H       1  UNL1        0.0281
     56 H           3.1969   -1.5360    0.0000 H       1  UNL1        0.0463
     57 H           2.8617   -2.9657    0.0000 H       1  UNL1        0.1219
     58 H           2.3121   -1.3066    0.0000 H       1  UNL1        0.0388
     59 H           1.4643   -1.5303    0.0000 H       1  UNL1        0.0388
     60 H           1.6879   -2.3781    0.0000 H       1  UNL1        0.0388
@<TRIPOS>BOND
     1     1    11    1
     2     1    14    1
     3     1    42    1
     4    23     2    1
     5     2    24    1
     6     2    57    1
     7     3     4    1
     8     3     5    1
     9     3     8    1
    10     3    11    1
    11     4     6    1
    12     4     9    1
    13     4    25    1
    14     5    10    1
    15     5    14    1
    16     5    26    1
    17     6     7    1
    18     6    15    1
    19     6    27    1
    20     7    12    1
    21     7    13    1
    22     7    28    1
    23     8    12    1
    24     8    29    1
    25     8    30    1
    26     9    10    1
    27     9    31    1
    28     9    32    1
    29    10    33    1
    30    10    34    1
    31    11    35    1
    32    11    36    1
    33    12    37    1
    34    12    38    1
    35    13    16    1
    36    13    17    1
    37    13    19    1
    38    14    20    1
    39    14    39    1
    40    15    18    1
    41    15    40    1
    42    15    41    1
    43    16    18    2
    44    16    21    1
    45    17    22    1
    46    17    43    1
    47    17    44    1
    48    18    45    1
    49    19    46    1
    50    19    47    1
    51    19    48    1
    52    20    49    1
    53    20    50    1
    54    20    51    1
    55    21    23    1
    56    21    52    1
    57    21    53    1
    58    22    23    1
    59    22    54    1
    60    22    55    1
    61    23    56    1
    62    24    58    1
    63    24    59    1
    64    24    60    1
