@<TRIPOS>MOLECULE
IMPHY015968
 40 42 0 0 0
SMALL
GASTEIGER

@<TRIPOS>ATOM
      1 O           5.5161    1.6408    0.0000 O.3     1  UNL1       -0.3875
      2 C           3.7841   -0.3592    0.0000 C.3     1  UNL1        0.0049
      3 C           2.9180    0.1408    0.0000 C.3     1  UNL1       -0.0192
      4 C           2.9180    1.1408    0.0000 C.3     1  UNL1       -0.0314
      5 C           3.6680    0.5739    0.0000 C.3     1  UNL1       -0.0391
      6 C           3.8001   -1.4007    0.0000 C.3     1  UNL1       -0.0250
      7 C           2.0080   -0.3660    0.0000 C.3     1  UNL1       -0.0465
      8 C           4.6501    0.1408    0.0000 C.2     1  UNL1       -0.0413
      9 C           3.7841    1.6408    0.0000 C.3     1  UNL1       -0.0196
     10 C           2.9021   -1.9284    0.0000 C.3     1  UNL1       -0.0470
     11 C           4.6501    1.1408    0.0000 C.3     1  UNL1        0.0768
     12 C           2.0520    0.6408    0.0000 C.3     1  UNL1       -0.0585
     13 C           2.0000   -1.4076    0.0000 C.3     1  UNL1       -0.0520
     14 C           4.3101   -2.2608    0.0000 C.3     1  UNL1       -0.0590
     15 C           4.8000   -1.3891    0.0000 C.3     1  UNL1       -0.0590
     16 C           5.5161   -0.3592    0.0000 C.2     1  UNL1       -0.0965
     17 H           2.3811    1.4508    0.0000 H       1  UNL1        0.0307
     18 H           4.2825    0.4915    0.0000 H       1  UNL1        0.0277
     19 H           3.9039    1.1472    0.0000 H       1  UNL1        0.0277
     20 H           1.8035    0.2193    0.0000 H       1  UNL1        0.0271
     21 H           1.3964   -0.4674    0.0000 H       1  UNL1        0.0271
     22 H           4.1826    2.1158    0.0000 H       1  UNL1        0.0296
     23 H           3.3855    2.1158    0.0000 H       1  UNL1        0.0296
     24 H           2.5048   -2.4044    0.0000 H       1  UNL1        0.0271
     25 H           3.3030   -2.4013    0.0000 H       1  UNL1        0.0271
     26 H           5.1870    0.8308    0.0000 H       1  UNL1        0.0640
     27 H           2.3620    1.1778    0.0000 H       1  UNL1        0.0235
     28 H           1.5151    0.9508    0.0000 H       1  UNL1        0.0235
     29 H           1.7420    0.1039    0.0000 H       1  UNL1        0.0235
     30 H           1.3900   -1.2968    0.0000 H       1  UNL1        0.0266
     31 H           1.7864   -1.9897    0.0000 H       1  UNL1        0.0266
     32 H           3.7768   -2.5770    0.0000 H       1  UNL1        0.0235
     33 H           4.6263   -2.7942    0.0000 H       1  UNL1        0.0235
     34 H           4.8434   -1.9447    0.0000 H       1  UNL1        0.0235
     35 H           4.8072   -2.0091    0.0000 H       1  UNL1        0.0235
     36 H           5.4200   -1.3819    0.0000 H       1  UNL1        0.0235
     37 H           4.7929   -0.7691    0.0000 H       1  UNL1        0.0235
     38 H           5.5161   -0.9792    0.0000 H       1  UNL1        0.0535
     39 H           6.0530   -0.0492    0.0000 H       1  UNL1        0.0535
     40 H           5.5161    2.2608    0.0000 H       1  UNL1        0.2102
@<TRIPOS>BOND
     1     1    11    1
     2     1    40    1
     3     2     3    1
     4     2     5    1
     5     2     6    1
     6     2     8    1
     7     3     4    1
     8     3     7    1
     9     3    12    1
    10     4     5    1
    11     4     9    1
    12     4    17    1
    13     5    18    1
    14     5    19    1
    15     6    10    1
    16     6    14    1
    17     6    15    1
    18     7    13    1
    19     7    20    1
    20     7    21    1
    21     8    11    1
    22     8    16    2
    23     9    11    1
    24     9    22    1
    25     9    23    1
    26    10    13    1
    27    10    24    1
    28    10    25    1
    29    11    26    1
    30    12    27    1
    31    12    28    1
    32    12    29    1
    33    13    30    1
    34    13    31    1
    35    14    32    1
    36    14    33    1
    37    14    34    1
    38    15    35    1
    39    15    36    1
    40    15    37    1
    41    16    38    1
    42    16    39    1
