@<TRIPOS>MOLECULE
IMPHY001338
 40 44 0 0 0
SMALL
GASTEIGER

@<TRIPOS>ATOM
      1 O           2.6079    0.6952    0.0000 O.3     1  UNL1       -0.4526
      2 O           2.6079    2.3716    0.0000 O.3     1  UNL1       -0.4526
      3 O           8.9752   -2.0647    0.0000 O.3     1  UNL1       -0.4908
      4 O          10.7866   -1.0189    0.0000 O.3     1  UNL1       -0.4914
      5 N           6.2435   -0.5081    0.0000 N.ar    1  UNL1       -0.2536
      6 C           7.1256    1.0334    0.0000 C.ar    1  UNL1        0.0088
      7 C           5.3935    1.0334    0.0000 C.ar    1  UNL1        0.0118
      8 C           6.2596    0.5334    0.0000 C.ar    1  UNL1        0.0794
      9 C           8.0356    0.5266    0.0000 C.ar    1  UNL1       -0.0035
     10 C           5.3935    2.0334    0.0000 C.ar    1  UNL1       -0.0121
     11 C           8.0436   -0.5150    0.0000 C.ar    1  UNL1        0.0461
     12 C           7.1256    2.0334    0.0000 C.ar    1  UNL1       -0.0514
     13 C           4.4996    0.4988    0.0000 C.ar    1  UNL1       -0.0064
     14 C           6.2596    2.5334    0.0000 C.ar    1  UNL1       -0.0532
     15 C           3.5935    1.0126    0.0000 C.ar    1  UNL1        0.1669
     16 C           4.4996    2.5681    0.0000 C.ar    1  UNL1       -0.0084
     17 C           3.5935    2.0542    0.0000 C.ar    1  UNL1        0.1668
     18 C           8.9624    1.0906    0.0000 C.ar    1  UNL1       -0.0497
     19 C           8.9790   -1.0648    0.0000 C.ar    1  UNL1        0.1706
     20 C           7.1415   -1.0358    0.0000 C.ar    1  UNL1        0.0396
     21 C           9.9187   -0.5223    0.0000 C.ar    1  UNL1        0.1622
     22 C           9.9103    0.5627    0.0000 C.ar    1  UNL1       -0.0157
     23 C           2.0000    1.5334    0.0000 C.3     1  UNL1        0.2332
     24 C           9.8393   -2.5681    0.0000 C.3     1  UNL1        0.0790
     25 C          11.6507   -0.5156    0.0000 C.3     1  UNL1        0.0790
     26 H           7.6625    2.3434    0.0000 H       1  UNL1        0.0624
     27 H           4.5068   -0.1212    0.0000 H       1  UNL1        0.0662
     28 H           6.2596    3.1534    0.0000 H       1  UNL1        0.0624
     29 H           4.5068    3.1880    0.0000 H       1  UNL1        0.0661
     30 H           8.9505    1.7105    0.0000 H       1  UNL1        0.0625
     31 H           7.1391   -1.6558    0.0000 H       1  UNL1        0.0837
     32 H          10.4436    0.8789    0.0000 H       1  UNL1        0.0655
     33 H           1.5391    1.9482    0.0000 H       1  UNL1        0.1166
     34 H           1.5391    1.1187    0.0000 H       1  UNL1        0.1166
     35 H           9.5272   -3.1038    0.0000 H       1  UNL1        0.0660
     36 H          10.3750   -2.8802    0.0000 H       1  UNL1        0.0660
     37 H          10.1513   -2.0323    0.0000 H       1  UNL1        0.0660
     38 H          11.9628   -1.0513    0.0000 H       1  UNL1        0.0660
     39 H          12.1864   -0.2035    0.0000 H       1  UNL1        0.0660
     40 H          11.3386    0.0202    0.0000 H       1  UNL1        0.0660
@<TRIPOS>BOND
     1     1    15    1
     2     1    23    1
     3     2    17    1
     4     2    23    1
     5     3    19    1
     6     3    24    1
     7     4    21    1
     8     4    25    1
     9     5     8   ar
    10     5    20   ar
    11     6     8   ar
    12     6     9   ar
    13     6    12   ar
    14     7     8   ar
    15     7    10   ar
    16     7    13   ar
    17     9    11   ar
    18     9    18   ar
    19    10    14   ar
    20    10    16   ar
    21    11    19   ar
    22    11    20   ar
    23    12    14   ar
    24    12    26    1
    25    13    15   ar
    26    13    27    1
    27    14    28    1
    28    15    17   ar
    29    16    17   ar
    30    16    29    1
    31    18    22   ar
    32    18    30    1
    33    19    21   ar
    34    20    31    1
    35    21    22   ar
    36    22    32    1
    37    23    33    1
    38    23    34    1
    39    24    35    1
    40    24    36    1
    41    24    37    1
    42    25    38    1
    43    25    39    1
    44    25    40    1
