@<TRIPOS>MOLECULE
IMPHY013420
 70 74 0 0 0
SMALL
GASTEIGER

@<TRIPOS>ATOM
      1 O           5.1350   -2.0289    0.0000 O.3     1  UNL1       -0.3313
      2 O           6.8671   -2.0289    0.0000 O.3     1  UNL1       -0.4606
      3 O           5.1350   -5.0289    0.0000 O.3     1  UNL1       -0.3864
      4 O           3.4030   -4.0289    0.0000 O.3     1  UNL1       -0.3865
      5 O           6.8671   -4.0289    0.0000 O.3     1  UNL1       -0.3829
      6 O          11.2153   -0.4764    0.0000 O.3     1  UNL1       -0.3369
      7 O          10.3551    1.0269    0.0000 O.3     1  UNL1       -0.4600
      8 O          13.8191    1.0135    0.0000 O.3     1  UNL1       -0.3864
      9 O           2.5369   -2.5289    0.0000 O.3     1  UNL1       -0.3924
     10 O          12.0910    2.0202    0.0000 O.3     1  UNL1       -0.3829
     11 O          13.8114   -0.9864    0.0000 O.3     1  UNL1       -0.3869
     12 O           8.6230    1.0336    0.0000 O.2     1  UNL1       -0.4542
     13 O           5.1208    1.0502    0.0000 O.3     1  UNL1       -0.5058
     14 O           6.0308    2.5436    0.0000 O.2     1  UNL1       -0.2869
     15 O          12.0987    4.0202    0.0000 O.3     1  UNL1       -0.5032
     16 O          10.3705    5.0269    0.0000 O.3     1  UNL1       -0.5033
     17 C           5.1350   -4.0289    0.0000 C.3     1  UNL1        0.1152
     18 C           4.2690   -3.5289    0.0000 C.3     1  UNL1        0.1120
     19 C           6.0010   -3.5289    0.0000 C.3     1  UNL1        0.1454
     20 C           4.2690   -2.5289    0.0000 C.3     1  UNL1        0.1140
     21 C           6.0010   -2.5289    0.0000 C.3     1  UNL1        0.2308
     22 C           3.4030   -2.0289    0.0000 C.3     1  UNL1        0.0731
     23 C          12.9512    0.5169    0.0000 C.3     1  UNL1        0.1148
     24 C          12.0871    1.0202    0.0000 C.3     1  UNL1        0.1454
     25 C          12.9473   -0.4831    0.0000 C.3     1  UNL1        0.1070
     26 C          11.2192    0.5236    0.0000 C.3     1  UNL1        0.2305
     27 C          12.0794   -0.9798    0.0000 C.3     1  UNL1        0.0802
     28 C           6.8671   -1.0289    0.0000 C.ar    1  UNL1        0.1310
     29 C          10.3589    2.0269    0.0000 C.ar    1  UNL1        0.1383
     30 C           7.7671   -0.5046    0.0000 C.ar    1  UNL1        0.0235
     31 C           5.9670   -0.5046    0.0000 C.ar    1  UNL1        0.0226
     32 C           7.7551    0.5369    0.0000 C.ar    1  UNL1        0.1462
     33 C           9.4948    2.5302    0.0000 C.ar    1  UNL1        0.0628
     34 C           6.8910    1.0402    0.0000 C.ar    1  UNL1        0.1055
     35 C           8.6269    2.0336    0.0000 C.ar    1  UNL1        0.1428
     36 C           5.9790    0.5369    0.0000 C.ar    1  UNL1        0.1347
     37 C          11.2269    2.5236    0.0000 C.ar    1  UNL1        0.0260
     38 C           6.8948    2.0402    0.0000 C.ar    1  UNL1        0.1966
     39 C           7.7628    2.5369    0.0000 C.ar    1  UNL1        0.0289
     40 C           9.4987    3.5302    0.0000 C.ar    1  UNL1       -0.0023
     41 C          11.2307    3.5235    0.0000 C.ar    1  UNL1        0.1618
     42 C          10.3666    4.0269    0.0000 C.ar    1  UNL1        0.1591
     43 H           5.6720   -4.3389    0.0000 H       1  UNL1        0.0648
     44 H           3.7320   -3.2189    0.0000 H       1  UNL1        0.0647
     45 H           6.5380   -3.2189    0.0000 H       1  UNL1        0.0683
     46 H           4.2690   -1.9089    0.0000 H       1  UNL1        0.0647
     47 H           6.0010   -1.9089    0.0000 H       1  UNL1        0.1084
     48 H          13.4869    0.2048    0.0000 H       1  UNL1        0.0648
     49 H           3.8015   -1.5540    0.0000 H       1  UNL1        0.0584
     50 H           3.0044   -1.5540    0.0000 H       1  UNL1        0.0584
     51 H          11.5514    1.3323    0.0000 H       1  UNL1        0.0683
     52 H          12.9450   -1.1031    0.0000 H       1  UNL1        0.0643
     53 H          10.6810    0.2156    0.0000 H       1  UNL1        0.1084
     54 H          11.6790   -1.4532    0.0000 H       1  UNL1        0.0588
     55 H          12.4761   -1.4562    0.0000 H       1  UNL1        0.0588
     56 H           4.5981   -5.3389    0.0000 H       1  UNL1        0.2100
     57 H           3.4030   -4.6489    0.0000 H       1  UNL1        0.2100
     58 H           6.8671   -4.6489    0.0000 H       1  UNL1        0.2102
     59 H          14.3549    0.7015    0.0000 H       1  UNL1        0.2100
     60 H           2.0000   -2.2189    0.0000 H       1  UNL1        0.2095
     61 H          12.6291    2.3281    0.0000 H       1  UNL1        0.2102
     62 H          13.8090   -1.6064    0.0000 H       1  UNL1        0.2100
     63 H           8.3064   -0.8105    0.0000 H       1  UNL1        0.0691
     64 H           5.4277   -0.8105    0.0000 H       1  UNL1        0.0691
     65 H          11.7626    2.2115    0.0000 H       1  UNL1        0.0692
     66 H           7.7652    3.1569    0.0000 H       1  UNL1        0.0693
     67 H           8.9630    3.8423    0.0000 H       1  UNL1        0.0663
     68 H           4.5792    0.7485    0.0000 H       1  UNL1        0.2922
     69 H          12.6344    3.7081    0.0000 H       1  UNL1        0.2923
     70 H           9.8348    5.3389    0.0000 H       1  UNL1        0.2923
@<TRIPOS>BOND
     1     1    20    1
     2     1    21    1
     3    21     2    1
     4     2    28    1
     5    17     3    1
     6     3    56    1
     7    18     4    1
     8     4    57    1
     9     5    19    1
    10     5    58    1
    11     6    26    1
    12     6    27    1
    13    26     7    1
    14     7    29    1
    15    23     8    1
    16     8    59    1
    17     9    22    1
    18     9    60    1
    19    10    24    1
    20    10    61    1
    21    25    11    1
    22    11    62    1
    23    12    32   ar
    24    12    35   ar
    25    13    36    1
    26    13    68    1
    27    14    38    2
    28    15    41    1
    29    15    69    1
    30    16    42    1
    31    16    70    1
    32    17    18    1
    33    17    19    1
    34    17    43    1
    35    18    20    1
    36    18    44    1
    37    19    21    1
    38    19    45    1
    39    20    22    1
    40    20    46    1
    41    21    47    1
    42    22    49    1
    43    22    50    1
    44    23    24    1
    45    23    25    1
    46    23    48    1
    47    24    26    1
    48    24    51    1
    49    25    27    1
    50    25    52    1
    51    26    53    1
    52    27    54    1
    53    27    55    1
    54    28    30   ar
    55    28    31   ar
    56    29    33   ar
    57    29    37   ar
    58    30    32   ar
    59    30    63    1
    60    31    36   ar
    61    31    64    1
    62    32    34   ar
    63    33    35    1
    64    33    40   ar
    65    34    36   ar
    66    34    38   ar
    67    35    39   ar
    68    37    41   ar
    69    37    65    1
    70    38    39   ar
    71    39    66    1
    72    40    42   ar
    73    40    67    1
    74    41    42   ar
