@<TRIPOS>MOLECULE
IMPHY017796
 32 31 0 0 0
SMALL
GASTEIGER

@<TRIPOS>ATOM
      1 O          10.6603    0.4400    0.0000 O.2     1  UNL1       -0.2963
      2 C           3.7320    0.4400    0.0000 C.3     1  UNL1       -0.0507
      3 C           4.5981   -0.0600    0.0000 C.3     1  UNL1       -0.0528
      4 C           2.8660   -0.0600    0.0000 C.3     1  UNL1       -0.0467
      5 C           5.4641    0.4400    0.0000 C.3     1  UNL1       -0.0528
      6 C           6.3301   -0.0600    0.0000 C.3     1  UNL1       -0.0496
      7 C           2.0000    0.4400    0.0000 C.3     1  UNL1       -0.0627
      8 C           2.8660   -1.0600    0.0000 C.3     1  UNL1       -0.0627
      9 C           7.1962    0.4400    0.0000 C.3     1  UNL1       -0.0344
     10 C           8.0622   -0.0600    0.0000 C.2     1  UNL1       -0.0810
     11 C           8.9282    0.4400    0.0000 C.2     1  UNL1       -0.0264
     12 C           9.7942   -0.0600    0.0000 C.2     1  UNL1        0.1428
     13 H           4.1306    0.9149    0.0000 H       1  UNL1        0.0268
     14 H           3.3335    0.9149    0.0000 H       1  UNL1        0.0268
     15 H           4.1996   -0.5349    0.0000 H       1  UNL1        0.0265
     16 H           4.9966   -0.5349    0.0000 H       1  UNL1        0.0265
     17 H           2.8660    0.5600    0.0000 H       1  UNL1        0.0295
     18 H           5.8626    0.9149    0.0000 H       1  UNL1        0.0265
     19 H           5.0656    0.9149    0.0000 H       1  UNL1        0.0265
     20 H           5.9316   -0.5349    0.0000 H       1  UNL1        0.0268
     21 H           6.7287   -0.5349    0.0000 H       1  UNL1        0.0268
     22 H           2.3100    0.9769    0.0000 H       1  UNL1        0.0232
     23 H           1.4631    0.7500    0.0000 H       1  UNL1        0.0232
     24 H           1.6900   -0.0969    0.0000 H       1  UNL1        0.0232
     25 H           2.2460   -1.0600    0.0000 H       1  UNL1        0.0232
     26 H           2.8660   -1.6800    0.0000 H       1  UNL1        0.0232
     27 H           3.4860   -1.0600    0.0000 H       1  UNL1        0.0232
     28 H           7.5947    0.9149    0.0000 H       1  UNL1        0.0307
     29 H           6.7976    0.9149    0.0000 H       1  UNL1        0.0307
     30 H           8.0622   -0.6800    0.0000 H       1  UNL1        0.0573
     31 H           8.9282    1.0600    0.0000 H       1  UNL1        0.0646
     32 H           9.7942   -0.6800    0.0000 H       1  UNL1        0.1075
@<TRIPOS>BOND
     1     1    12    2
     2     2     3    1
     3     2     4    1
     4     2    13    1
     5     2    14    1
     6     3     5    1
     7     3    15    1
     8     3    16    1
     9     4     7    1
    10     4     8    1
    11     4    17    1
    12     5     6    1
    13     5    18    1
    14     5    19    1
    15     6     9    1
    16     6    20    1
    17     6    21    1
    18     7    22    1
    19     7    23    1
    20     7    24    1
    21     8    25    1
    22     8    26    1
    23     8    27    1
    24     9    10    1
    25     9    28    1
    26     9    29    1
    27    10    11    2
    28    10    30    1
    29    11    12    1
    30    11    31    1
    31    12    32    1
