@<TRIPOS>MOLECULE
IMPHY005532
 41 43 0 0 0
SMALL
GASTEIGER

@<TRIPOS>ATOM
      1 O           5.7004    0.4091    0.0000 O.3     1  UNL1       -0.4592
      2 O           5.1080   -1.2185    0.0000 O.2     1  UNL1       -0.2475
      3 O           7.5798   -0.2749    0.0000 O.3     1  UNL1       -0.3762
      4 N           3.1885    3.0061    0.0000 N.3     1  UNL1       -0.2992
      5 C           2.4519    2.0235    0.0000 C.3     1  UNL1        0.0138
      6 C           2.7107    1.0576    0.0000 C.3     1  UNL1        0.0138
      7 C           1.0529    1.5147    0.0000 C.3     1  UNL1       -0.0358
      8 C           1.3117    0.5488    0.0000 C.3     1  UNL1       -0.0358
      9 C           4.4851    1.7124    0.0000 C.3     1  UNL1        0.0000
     10 C           3.9317    0.1919    0.0000 C.3     1  UNL1        0.0000
     11 C           4.7607    0.7511    0.0000 C.3     1  UNL1        0.1060
     12 C           3.6885    3.8722    0.0000 C.3     1  UNL1       -0.0122
     13 C           5.8741   -0.5757    0.0000 C.2     1  UNL1        0.3409
     14 C           6.8138   -0.9177    0.0000 C.3     1  UNL1        0.1767
     15 C           6.9874   -1.9025    0.0000 C.ar    1  UNL1       -0.0084
     16 C           7.9271   -2.2446    0.0000 C.ar    1  UNL1       -0.0556
     17 C           6.2214   -2.5453    0.0000 C.ar    1  UNL1       -0.0556
     18 C           8.1008   -3.2294    0.0000 C.ar    1  UNL1       -0.0614
     19 C           6.3950   -3.5301    0.0000 C.ar    1  UNL1       -0.0614
     20 C           7.3347   -3.8722    0.0000 C.ar    1  UNL1       -0.0617
     21 H           2.2319    2.8446    0.0000 H       1  UNL1        0.0464
     22 H           2.9307    0.2366    0.0000 H       1  UNL1        0.0464
     23 H           0.4590    1.3369    0.0000 H       1  UNL1        0.0281
     24 H           0.8580    2.1032    0.0000 H       1  UNL1        0.0281
     25 H           1.5067   -0.0398    0.0000 H       1  UNL1        0.0281
     26 H           0.7178    0.3710    0.0000 H       1  UNL1        0.0281
     27 H           4.4902    2.3324    0.0000 H       1  UNL1        0.0316
     28 H           5.0994    1.7962    0.0000 H       1  UNL1        0.0316
     29 H           4.3376   -0.2768    0.0000 H       1  UNL1        0.0316
     30 H           3.5150   -0.2672    0.0000 H       1  UNL1        0.0316
     31 H           5.2142    1.1740    0.0000 H       1  UNL1        0.0735
     32 H           3.1515    4.1822    0.0000 H       1  UNL1        0.0391
     33 H           3.9985    4.4091    0.0000 H       1  UNL1        0.0391
     34 H           4.2254    3.5622    0.0000 H       1  UNL1        0.0391
     35 H           7.6125   -1.2084    0.0000 H       1  UNL1        0.0762
     36 H           8.1624   -0.4870    0.0000 H       1  UNL1        0.2110
     37 H           8.4021   -1.8460    0.0000 H       1  UNL1        0.0621
     38 H           5.6388   -2.3333    0.0000 H       1  UNL1        0.0621
     39 H           8.6834   -3.4414    0.0000 H       1  UNL1        0.0618
     40 H           5.9201   -3.9287    0.0000 H       1  UNL1        0.0618
     41 H           7.4424   -4.4827    0.0000 H       1  UNL1        0.0618
@<TRIPOS>BOND
     1     1    11    1
     2     1    13    1
     3     2    13    2
     4     3    14    1
     5     3    36    1
     6     4     5    1
     7     4     6    1
     8     4    12    1
     9     5     7    1
    10     5     9    1
    11     5    21    1
    12     6     8    1
    13     6    10    1
    14     6    22    1
    15     7     8    1
    16     7    23    1
    17     7    24    1
    18     8    25    1
    19     8    26    1
    20     9    11    1
    21     9    27    1
    22     9    28    1
    23    10    11    1
    24    10    29    1
    25    10    30    1
    26    11    31    1
    27    12    32    1
    28    12    33    1
    29    12    34    1
    30    13    14    1
    31    14    15    1
    32    14    35    1
    33    15    16   ar
    34    15    17   ar
    35    16    18   ar
    36    16    37    1
    37    17    19   ar
    38    17    38    1
    39    18    20   ar
    40    18    39    1
    41    19    20   ar
    42    19    40    1
    43    20    41    1
