@<TRIPOS>MOLECULE
IMPHY002079
 35 38 0 0 0
SMALL
GASTEIGER

@<TRIPOS>ATOM
      1 O           3.7782    1.4952    0.0000 O.3     1  UNL1       -0.4908
      2 O           5.5442    2.5330    0.0000 O.3     1  UNL1       -0.4914
      3 O           4.6660   -3.0363    0.0000 O.2     1  UNL1       -0.2850
      4 N           6.3903   -2.0332    0.0000 N.ar    1  UNL1       -0.2511
      5 C           4.6660   -0.0363    0.0000 C.ar    1  UNL1        0.0380
      6 C           5.5321   -0.5363    0.0000 C.ar    1  UNL1        0.0227
      7 C           3.8000   -0.5363    0.0000 C.ar    1  UNL1       -0.0027
      8 C           6.4421   -0.0294    0.0000 C.ar    1  UNL1       -0.0100
      9 C           5.5321   -1.5363    0.0000 C.ar    1  UNL1        0.1193
     10 C           3.8000   -1.5363    0.0000 C.ar    1  UNL1        0.0317
     11 C           4.6500    1.0052    0.0000 C.ar    1  UNL1        0.1698
     12 C           4.6660   -2.0363    0.0000 C.2     1  UNL1        0.2124
     13 C           5.5480    1.5330    0.0000 C.ar    1  UNL1        0.1627
     14 C           6.4501    1.0122    0.0000 C.ar    1  UNL1       -0.0084
     15 C           2.9061   -0.0016    0.0000 C.ar    1  UNL1       -0.0532
     16 C           7.2814   -0.5577    0.0000 C.ar    1  UNL1       -0.0357
     17 C           2.9061   -2.0710    0.0000 C.ar    1  UNL1       -0.0503
     18 C           7.2558   -1.5490    0.0000 C.ar    1  UNL1        0.0290
     19 C           2.0000   -0.5155    0.0000 C.ar    1  UNL1       -0.0611
     20 C           2.0000   -1.5571    0.0000 C.ar    1  UNL1       -0.0610
     21 C           3.7667    2.4951    0.0000 C.3     1  UNL1        0.0790
     22 C           6.4082    3.0363    0.0000 C.3     1  UNL1        0.0790
     23 H           6.9882    1.3201    0.0000 H       1  UNL1        0.0661
     24 H           2.9132    0.6183    0.0000 H       1  UNL1        0.0624
     25 H           7.8280   -0.2650    0.0000 H       1  UNL1        0.0639
     26 H           2.9132   -2.6909    0.0000 H       1  UNL1        0.0625
     27 H           7.7865   -1.8696    0.0000 H       1  UNL1        0.0830
     28 H           1.4643   -0.2034    0.0000 H       1  UNL1        0.0618
     29 H           1.4643   -1.8692    0.0000 H       1  UNL1        0.0618
     30 H           4.3866    2.5023    0.0000 H       1  UNL1        0.0660
     31 H           3.7595    3.1151    0.0000 H       1  UNL1        0.0660
     32 H           3.1467    2.4879    0.0000 H       1  UNL1        0.0660
     33 H           6.7203    2.5006    0.0000 H       1  UNL1        0.0660
     34 H           6.9440    3.3484    0.0000 H       1  UNL1        0.0660
     35 H           6.0962    3.5720    0.0000 H       1  UNL1        0.0660
@<TRIPOS>BOND
     1     1    11    1
     2     1    21    1
     3     2    13    1
     4     2    22    1
     5     3    12    2
     6     4     9   ar
     7     4    18   ar
     8     5     6   ar
     9     5     7    1
    10     5    11   ar
    11     6     8   ar
    12     6     9   ar
    13     7    10   ar
    14     7    15   ar
    15     8    14   ar
    16     8    16   ar
    17     9    12    1
    18    10    12    1
    19    10    17   ar
    20    11    13   ar
    21    13    14   ar
    22    14    23    1
    23    15    19   ar
    24    15    24    1
    25    16    18   ar
    26    16    25    1
    27    17    20   ar
    28    17    26    1
    29    18    27    1
    30    19    20   ar
    31    19    28    1
    32    20    29    1
    33    21    30    1
    34    21    31    1
    35    21    32    1
    36    22    33    1
    37    22    34    1
    38    22    35    1
