@<TRIPOS>MOLECULE
IMPHY004858
 43 47 0 0 0
SMALL
GASTEIGER

@<TRIPOS>ATOM
      1 O           8.7939   -1.5254    0.0000 O.3     1  UNL1       -0.4564
      2 O           8.0011    2.6417    0.0000 O.3     1  UNL1       -0.4526
      3 O           6.6073    3.4464    0.0000 O.3     1  UNL1       -0.4526
      4 O           2.8680   -0.5012    0.0000 O.3     1  UNL1       -0.4914
      5 O           2.8680   -2.5495    0.0000 O.3     1  UNL1       -0.4914
      6 O           8.5210    0.2299    0.0000 O.2     1  UNL1       -0.2449
      7 C           6.3981   -0.5254    0.0000 C.ar    1  UNL1        0.0044
      8 C           7.2641   -1.0254    0.0000 C.ar    1  UNL1        0.0737
      9 C           5.5320   -1.0254    0.0000 C.ar    1  UNL1       -0.0057
     10 C           7.2641   -2.0254    0.0000 C.ar    1  UNL1        0.0048
     11 C           5.5320   -2.0254    0.0000 C.ar    1  UNL1       -0.0132
     12 C           6.3981    0.4746    0.0000 C.ar    1  UNL1       -0.0128
     13 C           6.3981   -2.5254    0.0000 C.ar    1  UNL1       -0.0467
     14 C           8.2103   -2.3301    0.0000 C.3     1  UNL1        0.1186
     15 C           8.2103   -0.7206    0.0000 C.2     1  UNL1        0.3405
     16 C           4.6381   -0.4907    0.0000 C.ar    1  UNL1       -0.0080
     17 C           4.6381   -2.5600    0.0000 C.ar    1  UNL1       -0.0086
     18 C           7.2641    0.9746    0.0000 C.ar    1  UNL1       -0.0084
     19 C           3.7320   -1.0046    0.0000 C.ar    1  UNL1        0.1621
     20 C           5.5320    0.9746    0.0000 C.ar    1  UNL1       -0.0503
     21 C           3.7320   -2.0462    0.0000 C.ar    1  UNL1        0.1621
     22 C           7.2641    1.9746    0.0000 C.ar    1  UNL1        0.1668
     23 C           6.3981    2.4746    0.0000 C.ar    1  UNL1        0.1663
     24 C           5.5320    1.9746    0.0000 C.ar    1  UNL1       -0.0156
     25 C           7.5960    3.5495    0.0000 C.3     1  UNL1        0.2332
     26 C           2.0000   -0.9979    0.0000 C.3     1  UNL1        0.0790
     27 C           2.8718   -3.5495    0.0000 C.3     1  UNL1        0.0790
     28 H           6.3981   -3.1454    0.0000 H       1  UNL1        0.0628
     29 H           7.9593   -2.8970    0.0000 H       1  UNL1        0.0749
     30 H           8.7477   -2.6393    0.0000 H       1  UNL1        0.0749
     31 H           4.6453    0.1293    0.0000 H       1  UNL1        0.0662
     32 H           4.6453   -3.1800    0.0000 H       1  UNL1        0.0661
     33 H           7.8010    0.6646    0.0000 H       1  UNL1        0.0661
     34 H           4.9951    0.6646    0.0000 H       1  UNL1        0.0625
     35 H           4.9951    2.2846    0.0000 H       1  UNL1        0.0655
     36 H           8.1856    3.7413    0.0000 H       1  UNL1        0.1166
     37 H           7.4673    4.1560    0.0000 H       1  UNL1        0.1166
     38 H           1.6921   -0.4597    0.0000 H       1  UNL1        0.0660
     39 H           1.4619   -1.3058    0.0000 H       1  UNL1        0.0660
     40 H           2.3079   -1.5360    0.0000 H       1  UNL1        0.0660
     41 H           2.2518   -3.5519    0.0000 H       1  UNL1        0.0660
     42 H           2.8742   -4.1695    0.0000 H       1  UNL1        0.0660
     43 H           3.4918   -3.5471    0.0000 H       1  UNL1        0.0660
@<TRIPOS>BOND
     1     1    14    1
     2     1    15    1
     3     2    22    1
     4     2    25    1
     5     3    23    1
     6     3    25    1
     7     4    19    1
     8     4    26    1
     9     5    21    1
    10     5    27    1
    11     6    15    2
    12     7     8   ar
    13     7     9   ar
    14     7    12    1
    15     8    10   ar
    16     8    15    1
    17     9    11   ar
    18     9    16   ar
    19    10    13   ar
    20    10    14    1
    21    11    13   ar
    22    11    17   ar
    23    12    18   ar
    24    12    20   ar
    25    13    28    1
    26    14    29    1
    27    14    30    1
    28    16    19   ar
    29    16    31    1
    30    17    21   ar
    31    17    32    1
    32    18    22   ar
    33    18    33    1
    34    19    21   ar
    35    20    24   ar
    36    20    34    1
    37    22    23   ar
    38    23    24   ar
    39    24    35    1
    40    25    36    1
    41    25    37    1
    42    26    38    1
    43    26    39    1
    44    26    40    1
    45    27    41    1
    46    27    42    1
    47    27    43    1
