@<TRIPOS>MOLECULE
IMPHY001570
 86 90 0 0 0
SMALL
GASTEIGER

@<TRIPOS>ATOM
      1 O           3.7320   -1.9012    0.0000 O.3     1  UNL1       -0.4610
      2 O           2.8718   -0.3979    0.0000 O.2     1  UNL1       -0.2512
      3 C           9.1251    0.1511    0.0000 C.3     1  UNL1       -0.0231
      4 C           8.2591   -0.3489    0.0000 C.3     1  UNL1       -0.0231
      5 C           9.1251    1.1511    0.0000 C.3     1  UNL1       -0.0294
      6 C           7.3931    0.1511    0.0000 C.3     1  UNL1       -0.0294
      7 C          10.0191    1.6858    0.0000 C.3     1  UNL1       -0.0253
      8 C           6.4831   -0.3557    0.0000 C.3     1  UNL1       -0.0252
      9 C           6.4750   -1.3973    0.0000 C.3     1  UNL1       -0.0268
     10 C          10.9251    1.1719    0.0000 C.3     1  UNL1       -0.0288
     11 C           8.2591    1.6511    0.0000 C.3     1  UNL1       -0.0489
     12 C           8.2752   -1.3904    0.0000 C.3     1  UNL1       -0.0466
     13 C          10.0191   -0.3835    0.0000 C.3     1  UNL1       -0.0466
     14 C           7.3931    1.1511    0.0000 C.3     1  UNL1       -0.0489
     15 C           7.3771   -1.9181    0.0000 C.3     1  UNL1       -0.0486
     16 C          10.9251    0.1303    0.0000 C.3     1  UNL1       -0.0486
     17 C          10.2292    2.6997    0.0000 C.3     1  UNL1       -0.0465
     18 C           5.5396   -1.9470    0.0000 C.3     1  UNL1        0.0055
     19 C          11.6875    1.8727    0.0000 C.3     1  UNL1       -0.0171
     20 C           5.5562    0.2084    0.0000 C.3     1  UNL1       -0.0437
     21 C           9.4672   -0.7885    0.0000 C.3     1  UNL1       -0.0588
     22 C           8.9019   -1.1149    0.0000 C.3     1  UNL1       -0.0588
     23 C          11.2582    2.8150    0.0000 C.3     1  UNL1       -0.0457
     24 C           9.1492    2.1791    0.0000 C.3     1  UNL1       -0.0590
     25 C           6.4908    0.6442    0.0000 C.3     1  UNL1       -0.0590
     26 C           4.6000   -1.4046    0.0000 C.3     1  UNL1        0.1084
     27 C           4.6084   -0.3196    0.0000 C.3     1  UNL1       -0.0146
     28 C           5.0430   -2.8150    0.0000 C.3     1  UNL1       -0.0562
     29 C           6.0430   -2.8111    0.0000 C.3     1  UNL1       -0.0562
     30 C          12.6675    1.6740    0.0000 C.2     1  UNL1       -0.0763
     31 C          13.3296    2.4234    0.0000 C.3     1  UNL1       -0.0438
     32 C          12.9855    0.7259    0.0000 C.2     1  UNL1       -0.0994
     33 C           2.8680   -1.3979    0.0000 C.2     1  UNL1        0.3042
     34 C           2.0000   -1.8945    0.0000 C.3     1  UNL1        0.0332
     35 H           9.8645    0.7318    0.0000 H       1  UNL1        0.0312
     36 H           8.1292    0.5761    0.0000 H       1  UNL1        0.0312
     37 H           6.4783   -2.2473    0.0000 H       1  UNL1        0.0312
     38 H          11.7034    0.8302    0.0000 H       1  UNL1        0.0312
     39 H           8.6576    2.1261    0.0000 H       1  UNL1        0.0268
     40 H           7.8606    2.1261    0.0000 H       1  UNL1        0.0268
     41 H           8.4932   -1.9708    0.0000 H       1  UNL1        0.0271
     42 H           8.8843   -1.2749    0.0000 H       1  UNL1        0.0271
     43 H           7.1810    1.7337    0.0000 H       1  UNL1        0.0268
     44 H           6.7825    1.0435    0.0000 H       1  UNL1        0.0268
     45 H           9.6145   -0.8533    0.0000 H       1  UNL1        0.0271
     46 H          10.4127   -0.8626    0.0000 H       1  UNL1        0.0271
     47 H           6.9798   -2.3941    0.0000 H       1  UNL1        0.0268
     48 H           7.7781   -2.3910    0.0000 H       1  UNL1        0.0268
     49 H          11.1342   -0.4534    0.0000 H       1  UNL1        0.0268
     50 H          11.5360    0.2364    0.0000 H       1  UNL1        0.0268
     51 H          10.2253    3.3197    0.0000 H       1  UNL1        0.0271
     52 H           9.6122    2.7610    0.0000 H       1  UNL1        0.0271
     53 H          12.0733    2.3580    0.0000 H       1  UNL1        0.0348
     54 H           5.9644    0.6750    0.0000 H       1  UNL1        0.0272
     55 H           5.1663    0.6904    0.0000 H       1  UNL1        0.0272
     56 H           8.8846   -1.0006    0.0000 H       1  UNL1        0.0235
     57 H           9.6794   -1.3711    0.0000 H       1  UNL1        0.0235
     58 H          10.0498   -0.5764    0.0000 H       1  UNL1        0.0235
     59 H           8.4269   -1.5134    0.0000 H       1  UNL1        0.0235
     60 H           9.3004   -1.5899    0.0000 H       1  UNL1        0.0235
     61 H           9.3768   -0.7164    0.0000 H       1  UNL1        0.0235
     62 H          11.8463    3.0113    0.0000 H       1  UNL1        0.0271
     63 H          11.1248    3.4205    0.0000 H       1  UNL1        0.0271
     64 H           9.4551    2.7184    0.0000 H       1  UNL1        0.0235
     65 H           8.6099    2.4850    0.0000 H       1  UNL1        0.0235
     66 H           8.8434    1.6398    0.0000 H       1  UNL1        0.0235
     67 H           7.1108    0.6395    0.0000 H       1  UNL1        0.0235
     68 H           6.4956    1.2642    0.0000 H       1  UNL1        0.0235
     69 H           5.8708    0.6490    0.0000 H       1  UNL1        0.0235
     70 H           4.0648   -1.0914    0.0000 H       1  UNL1        0.0739
     71 H           4.4038    0.2657    0.0000 H       1  UNL1        0.0301
     72 H           3.9967   -0.4210    0.0000 H       1  UNL1        0.0301
     73 H           4.5048   -2.5071    0.0000 H       1  UNL1        0.0236
     74 H           4.7350   -3.3531    0.0000 H       1  UNL1        0.0236
     75 H           5.5811   -3.1229    0.0000 H       1  UNL1        0.0236
     76 H           5.5072   -3.1232    0.0000 H       1  UNL1        0.0236
     77 H           6.3550   -3.3469    0.0000 H       1  UNL1        0.0236
     78 H           6.5787   -2.4991    0.0000 H       1  UNL1        0.0236
     79 H          13.7942    2.0130    0.0000 H       1  UNL1        0.0274
     80 H          13.7401    2.8881    0.0000 H       1  UNL1        0.0274
     81 H          12.8650    2.8340    0.0000 H       1  UNL1        0.0274
     82 H          12.5750    0.2613    0.0000 H       1  UNL1        0.0534
     83 H          13.5931    0.6028    0.0000 H       1  UNL1        0.0534
     84 H           1.6921   -1.3564    0.0000 H       1  UNL1        0.0342
     85 H           1.4619   -2.2025    0.0000 H       1  UNL1        0.0342
     86 H           2.3079   -2.4327    0.0000 H       1  UNL1        0.0342
@<TRIPOS>BOND
     1    26     1    1
     2     1    33    1
     3     2    33    2
     4     3     4    1
     5     3     5    1
     6     3    13    1
     7     3    21    1
     8     4     6    1
     9     4    12    1
    10     4    22    1
    11     5     7    1
    12     5    11    1
    13     5    35    1
    14     6     8    1
    15     6    14    1
    16     6    36    1
    17     7    10    1
    18     7    17    1
    19     7    24    1
    20     8     9    1
    21     8    20    1
    22     8    25    1
    23     9    15    1
    24     9    18    1
    25     9    37    1
    26    10    16    1
    27    10    19    1
    28    10    38    1
    29    11    14    1
    30    11    39    1
    31    11    40    1
    32    12    15    1
    33    12    41    1
    34    12    42    1
    35    13    16    1
    36    13    45    1
    37    13    46    1
    38    14    43    1
    39    14    44    1
    40    15    47    1
    41    15    48    1
    42    16    49    1
    43    16    50    1
    44    17    23    1
    45    17    51    1
    46    17    52    1
    47    18    26    1
    48    18    28    1
    49    18    29    1
    50    19    23    1
    51    19    30    1
    52    19    53    1
    53    20    27    1
    54    20    54    1
    55    20    55    1
    56    21    56    1
    57    21    57    1
    58    21    58    1
    59    22    59    1
    60    22    60    1
    61    22    61    1
    62    23    62    1
    63    23    63    1
    64    24    64    1
    65    24    65    1
    66    24    66    1
    67    25    67    1
    68    25    68    1
    69    25    69    1
    70    26    27    1
    71    26    70    1
    72    27    71    1
    73    27    72    1
    74    28    73    1
    75    28    74    1
    76    28    75    1
    77    29    76    1
    78    29    77    1
    79    29    78    1
    80    30    31    1
    81    30    32    2
    82    31    79    1
    83    31    80    1
    84    31    81    1
    85    32    82    1
    86    32    83    1
    87    33    34    1
    88    34    84    1
    89    34    85    1
    90    34    86    1
