@<TRIPOS>MOLECULE
IMPHY008834
 35 40 0 0 0
SMALL
GASTEIGER
****
Created with ChemWriter - http://chemwriter.com
@<TRIPOS>ATOM
      1 C           4.1044    1.6183    0.0000 C.3     1  UNL1        0.0264
      2 C           5.7817    0.5290    0.0000 C.3     1  UNL1        0.0372
      3 C           2.1945    0.1516    0.0000 C.3     1  UNL1        0.0118
      4 C           3.0563   -1.8316    0.0000 C.3     1  UNL1        0.0335
      5 C           3.4371    1.8691    0.0000 C.2     1  UNL1       -0.0187
      6 C           2.8158    2.2278    0.0000 C.2     1  UNL1       -0.0083
      7 C           3.4371    1.1516    0.0000 C.3     1  UNL1        0.0907
      8 C           1.5731    2.2278    0.0000 C.2     1  UNL1       -0.0298
      9 C           0.9518    1.8691    0.0000 C.3     1  UNL1        0.0307
     10 C           1.7588    0.0999    0.0000 C.3     1  UNL1        0.0035
     11 C           1.9319    0.5176    0.0000 C.3     1  UNL1        0.0101
     12 C           1.4001   -0.5214    0.0000 C.3     1  UNL1        0.0325
     13 C           1.2247    1.2247    0.0000 C.3     1  UNL1        0.0593
     14 C           3.1610    0.1657    0.0000 C.3     1  UNL1        0.0680
     15 C           4.0520    0.6197    0.0000 C.2     1  UNL1       -0.0380
     16 C           4.8907    0.0750    0.0000 C.2     1  UNL1        0.0460
     17 C           2.1945    1.8691    0.0000 C.2     1  UNL1       -0.0208
     18 C           1.5731    0.7929    0.0000 C.3     1  UNL1        0.0155
     19 C           0.9518    1.1516    0.0000 C.3     1  UNL1        0.0594
     20 C           1.6730   -0.4483    0.0000 C.3     1  UNL1        0.0587
     21 C           2.8158    0.7929    0.0000 C.2     1  UNL1        0.1579
     22 C           3.1087   -0.8330    0.0000 C.3     1  UNL1        0.1977
     23 C           4.8384   -0.9236    0.0000 C.2     1  UNL1        0.3365
     24 C           0.6548   -1.7057    0.0000 C.3     1  UNL1        0.2939
     25 C           2.1945    1.1516    0.0000 C.3     1  UNL1        0.0704
     26 C           2.2177   -1.2870    0.0000 C.3     1  UNL1        0.1346
     27 C           0.7071   -0.7071    0.0000 C.3     1  UNL1        0.1517
     28 C           0.2588    0.9659    0.0000 C.3     1  UNL1        0.2191
     29 O           2.8158   -0.2071    0.0000 O.2     1  UNL1       -0.2954
     30 O           5.6770   -1.4683    0.0000 O.2     1  UNL1       -0.2453
     31 O          -0.1839   -2.2504    0.0000 O.3     1  UNL1       -0.1873
     32 O          -0.6783    1.3149    0.0000 O.3     1  UNL1       -0.1953
     33 O           3.9473   -1.3776    0.0000 O.3     1  UNL1       -0.4466
     34 O           1.5884   -2.0641    0.0000 O.3     1  UNL1       -0.3279
     35 O           0.0000    0.0000    0.0000 O.3     1  UNL1       -0.3316
@<TRIPOS>BOND
     1     1    15    1
     2     2    16    1
     3     3    25    1
     4     4    26    1
     5     5     6    2
     6     5     7    1
     7     6    17    1
     8     7    21    1
     9     8     9    1
    10     8    17    2
    11     9    19    1
    12    10    12    1
    13    10    18    1
    14    11    13    1
    15    11    20    1
    16    12    27    1
    17    13    28    1
    18    14    15    1
    19    14    22    1
    20    15    16    2
    21    16    23    1
    22    17    25    1
    23    18    19    1
    24    18    25    1
    25    19    28    1
    26    20    26    1
    27    20    27    1
    28    21    25    1
    29    21    29    2
    30    22    26    1
    31    22    33    1
    32    23    30    2
    33    23    33    1
    34    24    27    1
    35    24    31    1
    36    24    34    1
    37    26    34    1
    38    27    35    1
    39    28    32    1
    40    28    35    1
