@<TRIPOS>MOLECULE
IMPHY008630
 176 186 0 0 0
SMALL
GASTEIGER

@<TRIPOS>ATOM
      1 O          10.8882    7.0403    0.0000 O.3     1  UNL1       -0.3448
      2 O           9.1158    7.9351    0.0000 O.3     1  UNL1       -0.3480
      3 O           9.4651   -1.2038    0.0000 O.3     1  UNL1       -0.3451
      4 O           7.7331   -1.2038    0.0000 O.3     1  UNL1       -0.3405
      5 O           9.4651   -3.2038    0.0000 O.3     1  UNL1       -0.3377
      6 O           7.7331   -4.2038    0.0000 O.3     1  UNL1       -0.3400
      7 O           6.0010   -3.2038    0.0000 O.3     1  UNL1       -0.3865
      8 O          10.3312   -1.7038    0.0000 O.3     1  UNL1       -0.3405
      9 O           6.0010   -0.2037    0.0000 O.3     1  UNL1       -0.3924
     10 O           6.0010   -4.2038    0.0000 O.3     1  UNL1       -0.3431
     11 O          11.1972   -4.2038    0.0000 O.3     1  UNL1       -0.3841
     12 O           7.7331   -6.2038    0.0000 O.3     1  UNL1       -0.3841
     13 O          12.9292   -3.2038    0.0000 O.3     1  UNL1       -0.3864
     14 O          12.9292   -1.2038    0.0000 O.3     1  UNL1       -0.3401
     15 O           6.0010   -7.2038    0.0000 O.3     1  UNL1       -0.3864
     16 O           4.2690   -6.2038    0.0000 O.3     1  UNL1       -0.3402
     17 O          12.0632    0.2963    0.0000 O.3     1  UNL1       -0.3924
     18 O          13.7953   -2.7038    0.0000 O.3     1  UNL1       -0.3405
     19 O           5.1350   -7.7038    0.0000 O.3     1  UNL1       -0.3405
     20 O          14.6613   -0.2037    0.0000 O.3     1  UNL1       -0.3841
     21 O           2.5369   -7.2038    0.0000 O.3     1  UNL1       -0.3841
     22 O          16.3933   -1.2038    0.0000 O.3     1  UNL1       -0.3864
     23 O          16.3933   -3.2038    0.0000 O.3     1  UNL1       -0.3865
     24 O           2.5369   -9.2038    0.0000 O.3     1  UNL1       -0.3864
     25 O           4.2690  -10.2037    0.0000 O.3     1  UNL1       -0.3865
     26 O          15.5273   -4.7038    0.0000 O.3     1  UNL1       -0.3924
     27 O           6.0010  -10.2037    0.0000 O.3     1  UNL1       -0.3924
     28 C           9.4944    4.9931    0.0000 C.3     1  UNL1       -0.0233
     29 C          10.3623    4.4965    0.0000 C.3     1  UNL1       -0.0295
     30 C           9.6999    5.9657    0.0000 C.3     1  UNL1       -0.0015
     31 C          10.3662    3.4965    0.0000 C.3     1  UNL1       -0.0306
     32 C          10.6882    6.0726    0.0000 C.3     1  UNL1        0.0660
     33 C           9.5021    2.9931    0.0000 C.3     1  UNL1       -0.0285
     34 C          11.0968    5.1664    0.0000 C.3     1  UNL1       -0.0226
     35 C           8.6303    4.4898    0.0000 C.3     1  UNL1       -0.0467
     36 C           9.2976    6.8683    0.0000 C.3     1  UNL1        0.0160
     37 C           8.6342    3.4898    0.0000 C.3     1  UNL1       -0.0486
     38 C           9.4901    1.9516    0.0000 C.3     1  UNL1       -0.0078
     39 C          10.0305    7.5311    0.0000 C.3     1  UNL1        0.1732
     40 C           8.6264    5.4898    0.0000 C.3     1  UNL1       -0.0590
     41 C          11.2781    2.9931    0.0000 C.3     1  UNL1       -0.0311
     42 C          10.3901    1.4273    0.0000 C.2     1  UNL1       -0.0648
     43 C           8.5402    1.4273    0.0000 C.3     1  UNL1       -0.0413
     44 C           8.3192    7.0750    0.0000 C.3     1  UNL1       -0.0572
     45 C          10.8378    8.1213    0.0000 C.3     1  UNL1        0.0020
     46 C          11.2902    1.9516    0.0000 C.2     1  UNL1       -0.0839
     47 C           8.6260    2.4549    0.0000 C.3     1  UNL1       -0.0556
     48 C          10.4027    0.3424    0.0000 C.3     1  UNL1       -0.0047
     49 C           8.5276    0.3424    0.0000 C.3     1  UNL1       -0.0254
     50 C           9.4651   -0.2037    0.0000 C.3     1  UNL1        0.0655
     51 C          10.7303    9.1155    0.0000 C.3     1  UNL1       -0.0435
     52 C           9.8155    9.5195    0.0000 C.3     1  UNL1       -0.0201
     53 C           9.0083    8.9293    0.0000 C.3     1  UNL1        0.0535
     54 C           9.7080   10.5137    0.0000 C.3     1  UNL1       -0.0603
     55 C           8.5991   -1.7038    0.0000 C.3     1  UNL1        0.1886
     56 C           8.5991   -2.7038    0.0000 C.3     1  UNL1        0.1410
     57 C           7.7331   -3.2038    0.0000 C.3     1  UNL1        0.1209
     58 C           6.8671   -1.7038    0.0000 C.3     1  UNL1        0.1130
     59 C           6.8671   -2.7038    0.0000 C.3     1  UNL1        0.1123
     60 C           6.0010   -1.2038    0.0000 C.3     1  UNL1        0.0730
     61 C          10.3312   -2.7038    0.0000 C.3     1  UNL1        0.1885
     62 C           6.8671   -4.7038    0.0000 C.3     1  UNL1        0.1883
     63 C          11.1972   -3.2038    0.0000 C.3     1  UNL1        0.1341
     64 C           6.8671   -5.7038    0.0000 C.3     1  UNL1        0.1341
     65 C          12.0632   -2.7038    0.0000 C.3     1  UNL1        0.1144
     66 C          11.1972   -1.2038    0.0000 C.3     1  UNL1        0.1134
     67 C          12.0632   -1.7038    0.0000 C.3     1  UNL1        0.1184
     68 C           6.0010   -6.2038    0.0000 C.3     1  UNL1        0.1143
     69 C           5.1350   -4.7038    0.0000 C.3     1  UNL1        0.0877
     70 C           5.1350   -5.7038    0.0000 C.3     1  UNL1        0.1160
     71 C          11.1972   -0.2037    0.0000 C.3     1  UNL1        0.0730
     72 C           4.2690   -4.2038    0.0000 C.3     1  UNL1       -0.0361
     73 C          13.7953   -1.7038    0.0000 C.3     1  UNL1        0.1884
     74 C           4.2690   -7.2038    0.0000 C.3     1  UNL1        0.1884
     75 C          14.6613   -1.2038    0.0000 C.3     1  UNL1        0.1341
     76 C           3.4030   -7.7038    0.0000 C.3     1  UNL1        0.1341
     77 C          15.5273   -1.7038    0.0000 C.3     1  UNL1        0.1141
     78 C          14.6613   -3.2038    0.0000 C.3     1  UNL1        0.1130
     79 C          15.5273   -2.7038    0.0000 C.3     1  UNL1        0.1119
     80 C           3.4030   -8.7038    0.0000 C.3     1  UNL1        0.1141
     81 C           5.1350   -8.7038    0.0000 C.3     1  UNL1        0.1130
     82 C           4.2690   -9.2038    0.0000 C.3     1  UNL1        0.1119
     83 C          14.6613   -4.2038    0.0000 C.3     1  UNL1        0.0730
     84 C           6.0010   -9.2038    0.0000 C.3     1  UNL1        0.0730
     85 H          10.9300    4.2472    0.0000 H       1  UNL1        0.0310
     86 H           9.0833    5.9004    0.0000 H       1  UNL1        0.0335
     87 H          10.8995    3.8127    0.0000 H       1  UNL1        0.0310
     88 H          11.3044    6.1406    0.0000 H       1  UNL1        0.0600
     89 H          10.0378    2.6811    0.0000 H       1  UNL1        0.0312
     90 H          11.4642    4.6670    0.0000 H       1  UNL1        0.0293
     91 H          11.6321    5.4792    0.0000 H       1  UNL1        0.0293
     92 H           8.4160    5.0716    0.0000 H       1  UNL1        0.0271
     93 H           8.0201    4.3798    0.0000 H       1  UNL1        0.0271
     94 H           9.1361    7.4669    0.0000 H       1  UNL1        0.0354
     95 H           8.0232    3.5951    0.0000 H       1  UNL1        0.0268
     96 H           8.4244    2.9064    0.0000 H       1  UNL1        0.0268
     97 H           8.9344    6.0279    0.0000 H       1  UNL1        0.0235
     98 H           8.0883    5.7977    0.0000 H       1  UNL1        0.0235
     99 H           8.3185    4.9517    0.0000 H       1  UNL1        0.0235
    100 H          11.8902    2.8941    0.0000 H       1  UNL1        0.0310
    101 H          11.4804    3.5792    0.0000 H       1  UNL1        0.0310
    102 H           8.3379    2.0134    0.0000 H       1  UNL1        0.0274
    103 H           7.9281    1.3283    0.0000 H       1  UNL1        0.0274
    104 H           8.4473    7.6816    0.0000 H       1  UNL1        0.0234
    105 H           7.7125    7.2032    0.0000 H       1  UNL1        0.0234
    106 H           8.1910    6.4684    0.0000 H       1  UNL1        0.0234
    107 H          11.1112    7.5649    0.0000 H       1  UNL1        0.0317
    108 H          11.4333    8.2940    0.0000 H       1  UNL1        0.0317
    109 H          11.8295    1.6457    0.0000 H       1  UNL1        0.0572
    110 H           8.9380    2.9906    0.0000 H       1  UNL1        0.0238
    111 H           8.0902    2.7670    0.0000 H       1  UNL1        0.0238
    112 H           8.3139    1.9192    0.0000 H       1  UNL1        0.0238
    113 H          10.6185   -0.2389    0.0000 H       1  UNL1        0.0335
    114 H          11.0123    0.4555    0.0000 H       1  UNL1        0.0335
    115 H           7.9180    0.4555    0.0000 H       1  UNL1        0.0290
    116 H           8.3118   -0.2389    0.0000 H       1  UNL1        0.0290
    117 H          10.0027   -0.5127    0.0000 H       1  UNL1        0.0600
    118 H          11.3489    9.0741    0.0000 H       1  UNL1        0.0270
    119 H          10.8785    9.7176    0.0000 H       1  UNL1        0.0270
    120 H          10.3160    9.8855    0.0000 H       1  UNL1        0.0320
    121 H           8.7348    9.4858    0.0000 H       1  UNL1        0.0563
    122 H           8.4128    8.7567    0.0000 H       1  UNL1        0.0563
    123 H          10.3244   10.5804    0.0000 H       1  UNL1        0.0233
    124 H           9.6414   11.1302    0.0000 H       1  UNL1        0.0233
    125 H           9.0916   10.4471    0.0000 H       1  UNL1        0.0233
    126 H           8.5991   -1.0838    0.0000 H       1  UNL1        0.0938
    127 H           8.5991   -3.3238    0.0000 H       1  UNL1        0.0675
    128 H           7.1962   -3.5138    0.0000 H       1  UNL1        0.0651
    129 H           6.8671   -1.0838    0.0000 H       1  UNL1        0.0647
    130 H           6.8671   -3.3238    0.0000 H       1  UNL1        0.0647
    131 H           5.3905   -1.0961    0.0000 H       1  UNL1        0.0584
    132 H           5.7890   -1.7864    0.0000 H       1  UNL1        0.0584
    133 H           9.7942   -2.3938    0.0000 H       1  UNL1        0.0938
    134 H           5.4641   -2.8938    0.0000 H       1  UNL1        0.2100
    135 H           7.4040   -5.0138    0.0000 H       1  UNL1        0.0938
    136 H          11.7341   -3.5138    0.0000 H       1  UNL1        0.0671
    137 H           5.4641    0.1063    0.0000 H       1  UNL1        0.2095
    138 H           6.8671   -6.3238    0.0000 H       1  UNL1        0.0671
    139 H          12.0632   -3.3238    0.0000 H       1  UNL1        0.0648
    140 H          10.6603   -0.8937    0.0000 H       1  UNL1        0.0647
    141 H          12.6002   -2.0138    0.0000 H       1  UNL1        0.0651
    142 H           5.4641   -6.5138    0.0000 H       1  UNL1        0.0648
    143 H           5.1350   -4.0838    0.0000 H       1  UNL1        0.0621
    144 H           5.1350   -6.3238    0.0000 H       1  UNL1        0.0650
    145 H          11.7341   -4.5138    0.0000 H       1  UNL1        0.2101
    146 H          10.9851    0.3789    0.0000 H       1  UNL1        0.0584
    147 H          10.5866   -0.3114    0.0000 H       1  UNL1        0.0584
    148 H           7.7331   -6.8238    0.0000 H       1  UNL1        0.2101
    149 H          12.9292   -3.8238    0.0000 H       1  UNL1        0.2100
    150 H           4.5790   -3.6668    0.0000 H       1  UNL1        0.0255
    151 H           3.7320   -3.8938    0.0000 H       1  UNL1        0.0255
    152 H           3.9590   -4.7407    0.0000 H       1  UNL1        0.0255
    153 H           6.5380   -7.5138    0.0000 H       1  UNL1        0.2100
    154 H          13.7953   -1.0838    0.0000 H       1  UNL1        0.0938
    155 H          12.6002   -0.0137    0.0000 H       1  UNL1        0.2095
    156 H           3.7320   -6.8938    0.0000 H       1  UNL1        0.0938
    157 H          15.1982   -0.8937    0.0000 H       1  UNL1        0.0671
    158 H           3.9399   -8.0138    0.0000 H       1  UNL1        0.0671
    159 H          16.0643   -2.0138    0.0000 H       1  UNL1        0.0648
    160 H          14.1244   -3.5138    0.0000 H       1  UNL1        0.0647
    161 H          15.5273   -3.3238    0.0000 H       1  UNL1        0.0647
    162 H           3.4030   -9.3238    0.0000 H       1  UNL1        0.0648
    163 H           5.6720   -8.3938    0.0000 H       1  UNL1        0.0647
    164 H           4.8059   -9.5138    0.0000 H       1  UNL1        0.0647
    165 H          15.1982    0.1063    0.0000 H       1  UNL1        0.2101
    166 H          14.0507   -4.0961    0.0000 H       1  UNL1        0.0584
    167 H          14.4492   -4.7864    0.0000 H       1  UNL1        0.0584
    168 H           2.0000   -7.5138    0.0000 H       1  UNL1        0.2101
    169 H          16.9303   -1.5138    0.0000 H       1  UNL1        0.2100
    170 H           6.6116   -9.3114    0.0000 H       1  UNL1        0.0584
    171 H           6.2131   -8.6211    0.0000 H       1  UNL1        0.0584
    172 H          16.9303   -2.8938    0.0000 H       1  UNL1        0.2100
    173 H           2.5369   -9.8238    0.0000 H       1  UNL1        0.2100
    174 H           3.7320  -10.5137    0.0000 H       1  UNL1        0.2100
    175 H          15.5273   -5.3238    0.0000 H       1  UNL1        0.2095
    176 H           6.5380  -10.5137    0.0000 H       1  UNL1        0.2095
@<TRIPOS>BOND
     1     1    32    1
     2     1    39    1
     3     2    39    1
     4     2    53    1
     5     3    50    1
     6     3    55    1
     7     4    55    1
     8     4    58    1
     9     5    56    1
    10     5    61    1
    11     6    57    1
    12     6    62    1
    13     7    59    1
    14     7   134    1
    15     8    61    1
    16     8    66    1
    17     9    60    1
    18     9   137    1
    19    10    62    1
    20    10    69    1
    21    11    63    1
    22    11   145    1
    23    12    64    1
    24    12   148    1
    25    13    65    1
    26    13   149    1
    27    14    67    1
    28    14    73    1
    29    15    68    1
    30    15   153    1
    31    16    70    1
    32    16    74    1
    33    17    71    1
    34    17   155    1
    35    18    73    1
    36    18    78    1
    37    19    74    1
    38    19    81    1
    39    20    75    1
    40    20   165    1
    41    21    76    1
    42    21   168    1
    43    22    77    1
    44    22   169    1
    45    23    79    1
    46    23   172    1
    47    24    80    1
    48    24   173    1
    49    25    82    1
    50    25   174    1
    51    26    83    1
    52    26   175    1
    53    27    84    1
    54    27   176    1
    55    28    29    1
    56    28    30    1
    57    28    35    1
    58    28    40    1
    59    29    31    1
    60    29    34    1
    61    29    85    1
    62    30    32    1
    63    30    36    1
    64    30    86    1
    65    31    33    1
    66    31    41    1
    67    31    87    1
    68    32    34    1
    69    32    88    1
    70    33    37    1
    71    33    38    1
    72    33    89    1
    73    34    90    1
    74    34    91    1
    75    35    37    1
    76    35    92    1
    77    35    93    1
    78    36    39    1
    79    36    44    1
    80    36    94    1
    81    37    95    1
    82    37    96    1
    83    38    42    1
    84    38    43    1
    85    38    47    1
    86    39    45    1
    87    40    97    1
    88    40    98    1
    89    40    99    1
    90    41    46    1
    91    41   100    1
    92    41   101    1
    93    42    46    2
    94    42    48    1
    95    43    49    1
    96    43   102    1
    97    43   103    1
    98    44   104    1
    99    44   105    1
   100    44   106    1
   101    45    51    1
   102    45   107    1
   103    45   108    1
   104    46   109    1
   105    47   110    1
   106    47   111    1
   107    47   112    1
   108    48    50    1
   109    48   113    1
   110    48   114    1
   111    49    50    1
   112    49   115    1
   113    49   116    1
   114    50   117    1
   115    51    52    1
   116    51   118    1
   117    51   119    1
   118    52    53    1
   119    52    54    1
   120    52   120    1
   121    53   121    1
   122    53   122    1
   123    54   123    1
   124    54   124    1
   125    54   125    1
   126    55    56    1
   127    55   126    1
   128    56    57    1
   129    56   127    1
   130    57    59    1
   131    57   128    1
   132    58    59    1
   133    58    60    1
   134    58   129    1
   135    59   130    1
   136    60   131    1
   137    60   132    1
   138    61    63    1
   139    61   133    1
   140    62    64    1
   141    62   135    1
   142    63    65    1
   143    63   136    1
   144    64    68    1
   145    64   138    1
   146    65    67    1
   147    65   139    1
   148    66    67    1
   149    66    71    1
   150    66   140    1
   151    67   141    1
   152    68    70    1
   153    68   142    1
   154    69    70    1
   155    69    72    1
   156    69   143    1
   157    70   144    1
   158    71   146    1
   159    71   147    1
   160    72   150    1
   161    72   151    1
   162    72   152    1
   163    73    75    1
   164    73   154    1
   165    74    76    1
   166    74   156    1
   167    75    77    1
   168    75   157    1
   169    76    80    1
   170    76   158    1
   171    77    79    1
   172    77   159    1
   173    78    79    1
   174    78    83    1
   175    78   160    1
   176    79   161    1
   177    80    82    1
   178    80   162    1
   179    81    82    1
   180    81    84    1
   181    81   163    1
   182    82   164    1
   183    83   166    1
   184    83   167    1
   185    84   170    1
   186    84   171    1
