@<TRIPOS>MOLECULE
IMPHY010522
 94 96 0 0 0
SMALL
GASTEIGER

@<TRIPOS>ATOM
      1 O           6.0097    3.6976    0.0000 O.3     1  UNL1       -0.4864
      2 O           6.3587   -0.1788    0.0000 O.2     1  UNL1       -0.2735
      3 O           6.5131    2.8335    0.0000 O.2     1  UNL1       -0.2736
      4 O           6.4632   -1.1733    0.0000 O.2     1  UNL1       -0.2741
      5 O           9.5274    2.8212    0.0000 O.2     1  UNL1       -0.2734
      6 N           5.3406    1.2224    0.0000 N.am    1  UNL1       -0.2849
      7 N           7.5097    1.0996    0.0000 N.am    1  UNL1       -0.3021
      8 N           4.7406   -1.3544    0.0000 N.am    1  UNL1       -0.3027
      9 N           4.9497   -3.3434    0.0000 N.3     1  UNL1       -0.2974
     10 N          10.0097    1.9656    0.0000 N.am    1  UNL1       -0.2904
     11 C           6.0097    1.9656    0.0000 C.3     1  UNL1        0.1390
     12 C           5.5097    2.8316    0.0000 C.3     1  UNL1        0.1285
     13 C           4.5316    2.6237    0.0000 C.3     1  UNL1        0.0024
     14 C           4.4271    1.6292    0.0000 C.3     1  UNL1        0.0191
     15 C           5.4451    0.2279    0.0000 C.2     1  UNL1        0.2366
     16 C           4.6361   -0.3599    0.0000 C.3     1  UNL1        0.0998
     17 C           7.0097    1.9656    0.0000 C.2     1  UNL1        0.2378
     18 C           3.7226    0.0469    0.0000 C.3     1  UNL1       -0.0236
     19 C           8.5097    1.0996    0.0000 C.3     1  UNL1        0.1023
     20 C           2.9136   -0.5409    0.0000 C.3     1  UNL1       -0.0446
     21 C           9.0097    0.2335    0.0000 C.3     1  UNL1       -0.0171
     22 C           5.7587   -2.7557    0.0000 C.3     1  UNL1        0.0893
     23 C           6.6723   -3.1624    0.0000 C.3     1  UNL1       -0.0200
     24 C           5.6542   -1.7611    0.0000 C.2     1  UNL1        0.2311
     25 C           7.0097    3.6976    0.0000 C.ar    1  UNL1        0.1211
     26 C           8.5097   -0.6325    0.0000 C.3     1  UNL1       -0.0512
     27 C           2.0000   -0.1342    0.0000 C.3     1  UNL1       -0.0626
     28 C           3.0181   -1.5354    0.0000 C.3     1  UNL1       -0.0626
     29 C           9.0097    1.9656    0.0000 C.2     1  UNL1        0.2374
     30 C           6.7768   -4.1569    0.0000 C.3     1  UNL1       -0.0514
     31 C          10.0097    0.2335    0.0000 C.3     1  UNL1       -0.0603
     32 C           7.4813   -2.5746    0.0000 C.3     1  UNL1       -0.0605
     33 C           7.5097    2.8316    0.0000 C.ar    1  UNL1       -0.0194
     34 C           7.5097    4.5636    0.0000 C.ar    1  UNL1       -0.0194
     35 C           9.0097   -1.4985    0.0000 C.3     1  UNL1       -0.0650
     36 C           5.0542   -4.3380    0.0000 C.3     1  UNL1       -0.0123
     37 C           4.0362   -2.9367    0.0000 C.3     1  UNL1       -0.0123
     38 C           7.6903   -4.5636    0.0000 C.3     1  UNL1       -0.0650
     39 C           8.5097    2.8316    0.0000 C.ar    1  UNL1       -0.0511
     40 C           8.5097    4.5636    0.0000 C.ar    1  UNL1       -0.0511
     41 C           9.0097    3.6976    0.0000 C.ar    1  UNL1       -0.0236
     42 C          10.5097    2.8316    0.0000 C.2     1  UNL1       -0.0031
     43 C          10.0097    3.6976    0.0000 C.2     1  UNL1       -0.0407
     44 H           6.3555    1.1891    0.0000 H       1  UNL1        0.0634
     45 H           5.0101    3.5193    0.0000 H       1  UNL1        0.0757
     46 H           4.4668    3.2403    0.0000 H       1  UNL1        0.0317
     47 H           3.9116    2.6237    0.0000 H       1  UNL1        0.0317
     48 H           3.8206    1.7581    0.0000 H       1  UNL1        0.0466
     49 H           4.2355    1.0395    0.0000 H       1  UNL1        0.0466
     50 H           5.2025   -0.6121    0.0000 H       1  UNL1        0.0595
     51 H           4.0693    0.5609    0.0000 H       1  UNL1        0.0290
     52 H           3.2766    0.4775    0.0000 H       1  UNL1        0.0290
     53 H           7.1997    0.5626    0.0000 H       1  UNL1        0.1495
     54 H           8.0847    0.3634    0.0000 H       1  UNL1        0.0597
     55 H           3.4799   -0.7931    0.0000 H       1  UNL1        0.0296
     56 H           4.2390   -1.7188    0.0000 H       1  UNL1        0.1495
     57 H           9.3197   -0.3034    0.0000 H       1  UNL1        0.0321
     58 H           5.8235   -3.3723    0.0000 H       1  UNL1        0.0561
     59 H           7.2387   -3.4146    0.0000 H       1  UNL1        0.0318
     60 H           8.0348   -0.2340    0.0000 H       1  UNL1        0.0266
     61 H           8.0348   -1.0310    0.0000 H       1  UNL1        0.0266
     62 H           2.2522    0.4322    0.0000 H       1  UNL1        0.0232
     63 H           2.4015   -1.6003    0.0000 H       1  UNL1        0.0232
     64 H           3.0829   -2.1520    0.0000 H       1  UNL1        0.0232
     65 H           3.6347   -1.4706    0.0000 H       1  UNL1        0.0232
     66 H           1.4336    0.1180    0.0000 H       1  UNL1        0.0232
     67 H           1.7478   -0.7006    0.0000 H       1  UNL1        0.0232
     68 H           6.1583   -4.1137    0.0000 H       1  UNL1        0.0266
     69 H           6.6268   -4.7585    0.0000 H       1  UNL1        0.0266
     70 H          10.0097   -0.3865    0.0000 H       1  UNL1        0.0233
     71 H          10.6297    0.2335    0.0000 H       1  UNL1        0.0233
     72 H          10.0097    0.8535    0.0000 H       1  UNL1        0.0233
     73 H           7.8457   -3.0762    0.0000 H       1  UNL1        0.0233
     74 H           7.9829   -2.2102    0.0000 H       1  UNL1        0.0233
     75 H           7.1168   -2.0730    0.0000 H       1  UNL1        0.0233
     76 H           7.1997    2.2947    0.0000 H       1  UNL1        0.0654
     77 H           7.1997    5.1006    0.0000 H       1  UNL1        0.0654
     78 H           8.4728   -1.8085    0.0000 H       1  UNL1        0.0230
     79 H           9.3197   -2.0355    0.0000 H       1  UNL1        0.0230
     80 H           9.5467   -1.1885    0.0000 H       1  UNL1        0.0230
     81 H           4.2883   -2.3703    0.0000 H       1  UNL1        0.0391
     82 H           4.4376   -4.4028    0.0000 H       1  UNL1        0.0391
     83 H           5.1190   -4.9546    0.0000 H       1  UNL1        0.0391
     84 H           5.6708   -4.2732    0.0000 H       1  UNL1        0.0391
     85 H           3.4698   -2.6845    0.0000 H       1  UNL1        0.0391
     86 H           3.7840   -3.5031    0.0000 H       1  UNL1        0.0391
     87 H           7.4382   -5.1300    0.0000 H       1  UNL1        0.0230
     88 H           8.2567   -4.8158    0.0000 H       1  UNL1        0.0230
     89 H           7.9425   -3.9972    0.0000 H       1  UNL1        0.0230
     90 H          10.3197    1.4286    0.0000 H       1  UNL1        0.1543
     91 H           8.8197    2.2947    0.0000 H       1  UNL1        0.0625
     92 H           8.8197    5.1006    0.0000 H       1  UNL1        0.0625
     93 H          11.1297    2.8316    0.0000 H       1  UNL1        0.0782
     94 H          10.3197    4.2346    0.0000 H       1  UNL1        0.0636
@<TRIPOS>BOND
     1     1    12    1
     2     1    25    1
     3     2    15    2
     4     3    17    2
     5     4    24    2
     6     5    29    2
     7     6    11    1
     8     6    14    1
     9     6    15   am
    10     7    17   am
    11     7    19    1
    12     7    53    1
    13    16     8    1
    14     8    24   am
    15     8    56    1
    16    22     9    1
    17     9    36    1
    18     9    37    1
    19    10    29   am
    20    10    42    1
    21    10    90    1
    22    11    12    1
    23    11    17    1
    24    11    44    1
    25    12    13    1
    26    12    45    1
    27    13    14    1
    28    13    46    1
    29    13    47    1
    30    14    48    1
    31    14    49    1
    32    15    16    1
    33    16    18    1
    34    16    50    1
    35    18    20    1
    36    18    51    1
    37    18    52    1
    38    19    21    1
    39    19    29    1
    40    19    54    1
    41    20    27    1
    42    20    28    1
    43    20    55    1
    44    21    26    1
    45    21    31    1
    46    21    57    1
    47    22    23    1
    48    22    24    1
    49    22    58    1
    50    23    30    1
    51    23    32    1
    52    23    59    1
    53    25    33   ar
    54    25    34   ar
    55    26    35    1
    56    26    60    1
    57    26    61    1
    58    27    62    1
    59    27    66    1
    60    27    67    1
    61    28    63    1
    62    28    64    1
    63    28    65    1
    64    30    38    1
    65    30    68    1
    66    30    69    1
    67    31    70    1
    68    31    71    1
    69    31    72    1
    70    32    73    1
    71    32    74    1
    72    32    75    1
    73    33    39   ar
    74    33    76    1
    75    34    40   ar
    76    34    77    1
    77    35    78    1
    78    35    79    1
    79    35    80    1
    80    36    82    1
    81    36    83    1
    82    36    84    1
    83    37    81    1
    84    37    85    1
    85    37    86    1
    86    38    87    1
    87    38    88    1
    88    38    89    1
    89    39    41   ar
    90    39    91    1
    91    40    41   ar
    92    40    92    1
    93    41    43    1
    94    42    43    2
    95    42    93    1
    96    43    94    1
