@<TRIPOS>MOLECULE
IMPHY016396
 13 13 0 0 0
SMALL
GASTEIGER

@<TRIPOS>ATOM
      1 O           2.5369    1.5000    0.0000 O.2     1  UNL1       -0.2956
      2 N           4.2690   -1.5000    0.0000 N.ar    1  UNL1       -0.2626
      3 C           3.4030    0.0000    0.0000 C.ar    1  UNL1        0.0323
      4 C           4.2690    0.5000    0.0000 C.ar    1  UNL1       -0.0487
      5 C           3.4030   -1.0000    0.0000 C.ar    1  UNL1        0.0377
      6 C           5.1350    0.0000    0.0000 C.ar    1  UNL1       -0.0429
      7 C           5.1350   -1.0000    0.0000 C.ar    1  UNL1        0.0276
      8 C           2.5369    0.5000    0.0000 C.2     1  UNL1        0.1516
      9 H           4.2690    1.1200    0.0000 H       1  UNL1        0.0625
     10 H           2.8660   -1.3100    0.0000 H       1  UNL1        0.0836
     11 H           5.6720    0.3100    0.0000 H       1  UNL1        0.0633
     12 H           5.6720   -1.3100    0.0000 H       1  UNL1        0.0829
     13 H           2.0000    0.1900    0.0000 H       1  UNL1        0.1082
@<TRIPOS>BOND
     1     1     8    2
     2     2     5   ar
     3     2     7   ar
     4     3     4   ar
     5     3     5   ar
     6     3     8    1
     7     4     6   ar
     8     4     9    1
     9     5    10    1
    10     6     7   ar
    11     6    11    1
    12     7    12    1
    13     8    13    1
