@<TRIPOS>MOLECULE
IMPHY009807
 73 77 0 0 0
SMALL
GASTEIGER

@<TRIPOS>ATOM
      1 O           6.0010   -0.9050    0.0000 O.3     1  UNL1       -0.3366
      2 O           6.8671    1.5950    0.0000 O.3     1  UNL1       -0.3313
      3 O           4.2690   -0.9050    0.0000 O.3     1  UNL1       -0.3431
      4 O           7.7331    0.0950    0.0000 O.3     1  UNL1       -0.4599
      5 O           4.2690    0.0950    0.0000 O.3     1  UNL1       -0.3863
      6 O           4.2690    2.0950    0.0000 O.3     1  UNL1       -0.3865
      7 O           6.0010   -2.9050    0.0000 O.3     1  UNL1       -0.3841
      8 O           4.2690   -3.9050    0.0000 O.3     1  UNL1       -0.3864
      9 O           2.5369   -2.9050    0.0000 O.3     1  UNL1       -0.3866
     10 O           5.1350    3.5950    0.0000 O.3     1  UNL1       -0.3924
     11 O          11.2351    0.0576    0.0000 O.3     1  UNL1       -0.4828
     12 O           8.6199   -1.4122    0.0000 O.2     1  UNL1       -0.2917
     13 O           9.5266    3.1468    0.0000 O.3     1  UNL1       -0.5065
     14 O          14.6643   -2.9822    0.0000 O.3     1  UNL1       -0.5068
     15 C           6.0010    0.0950    0.0000 C.3     1  UNL1        0.1519
     16 C           5.1350    0.5950    0.0000 C.3     1  UNL1        0.1155
     17 C           5.1350    1.5950    0.0000 C.3     1  UNL1        0.1120
     18 C           5.1350   -1.4050    0.0000 C.3     1  UNL1        0.1885
     19 C           6.8671    0.5950    0.0000 C.3     1  UNL1        0.2312
     20 C           6.0010    2.0950    0.0000 C.3     1  UNL1        0.1140
     21 C           5.1350   -2.4050    0.0000 C.3     1  UNL1        0.1341
     22 C           4.2690   -2.9050    0.0000 C.3     1  UNL1        0.1140
     23 C           3.4030   -2.4050    0.0000 C.3     1  UNL1        0.1095
     24 C           3.4030   -1.4050    0.0000 C.3     1  UNL1        0.0873
     25 C           6.0010    3.0950    0.0000 C.3     1  UNL1        0.0731
     26 C           2.5369   -0.9050    0.0000 C.3     1  UNL1       -0.0361
     27 C           8.5991    0.5950    0.0000 C.ar    1  UNL1        0.1414
     28 C           9.5032    0.0777    0.0000 C.ar    1  UNL1        0.1010
     29 C          10.3749    0.5676    0.0000 C.ar    1  UNL1        0.1389
     30 C           8.6031    1.6366    0.0000 C.ar    1  UNL1        0.0226
     31 C          11.2236   -0.9423    0.0000 C.3     1  UNL1        0.1322
     32 C          10.3518   -1.4322    0.0000 C.3     1  UNL1        0.0520
     33 C           9.4916   -0.9223    0.0000 C.2     1  UNL1        0.1740
     34 C           9.5112    2.1470    0.0000 C.ar    1  UNL1        0.1238
     35 C          10.4030    1.6089    0.0000 C.ar    1  UNL1        0.0225
     36 C          12.0838   -1.4523    0.0000 C.ar    1  UNL1       -0.0067
     37 C          12.0722   -2.4522    0.0000 C.ar    1  UNL1       -0.0516
     38 C          12.9555   -0.9623    0.0000 C.ar    1  UNL1       -0.0516
     39 C          12.9324   -2.9622    0.0000 C.ar    1  UNL1       -0.0198
     40 C          13.8157   -1.4723    0.0000 C.ar    1  UNL1       -0.0198
     41 C          13.8041   -2.4722    0.0000 C.ar    1  UNL1        0.1169
     42 H           6.5380   -0.2150    0.0000 H       1  UNL1        0.0687
     43 H           4.5981    0.9050    0.0000 H       1  UNL1        0.0648
     44 H           5.1350    2.2150    0.0000 H       1  UNL1        0.0647
     45 H           5.1350   -0.7850    0.0000 H       1  UNL1        0.0938
     46 H           7.4040    0.9050    0.0000 H       1  UNL1        0.1084
     47 H           6.5380    2.4050    0.0000 H       1  UNL1        0.0647
     48 H           5.1350   -3.0250    0.0000 H       1  UNL1        0.0671
     49 H           3.7320   -3.2150    0.0000 H       1  UNL1        0.0648
     50 H           2.8660   -2.0950    0.0000 H       1  UNL1        0.0646
     51 H           3.4030   -0.7850    0.0000 H       1  UNL1        0.0621
     52 H           6.6116    2.9873    0.0000 H       1  UNL1        0.0584
     53 H           6.2131    3.6776    0.0000 H       1  UNL1        0.0584
     54 H           2.8469   -0.3681    0.0000 H       1  UNL1        0.0255
     55 H           2.0000   -0.5950    0.0000 H       1  UNL1        0.0255
     56 H           2.2269   -1.4419    0.0000 H       1  UNL1        0.0255
     57 H           3.7320    0.4050    0.0000 H       1  UNL1        0.2100
     58 H           4.2690    2.7150    0.0000 H       1  UNL1        0.2100
     59 H           6.0010   -3.5250    0.0000 H       1  UNL1        0.2101
     60 H           3.7320   -4.2150    0.0000 H       1  UNL1        0.2100
     61 H           2.0000   -2.5950    0.0000 H       1  UNL1        0.2100
     62 H           5.1350    4.2150    0.0000 H       1  UNL1        0.2095
     63 H           8.0686    1.9508    0.0000 H       1  UNL1        0.0691
     64 H          11.7640   -0.6385    0.0000 H       1  UNL1        0.0789
     65 H           9.9478   -1.9026    0.0000 H       1  UNL1        0.0385
     66 H          10.7448   -1.9118    0.0000 H       1  UNL1        0.0385
     67 H          10.9470    1.9064    0.0000 H       1  UNL1        0.0691
     68 H          11.5317   -2.7560    0.0000 H       1  UNL1        0.0623
     69 H          12.9627   -0.3424    0.0000 H       1  UNL1        0.0623
     70 H          10.0682    3.4485    0.0000 H       1  UNL1        0.2921
     71 H          12.9252   -3.5822    0.0000 H       1  UNL1        0.0654
     72 H          14.3562   -1.1685    0.0000 H       1  UNL1        0.0654
     73 H          15.2048   -2.6785    0.0000 H       1  UNL1        0.2921
@<TRIPOS>BOND
     1     1    15    1
     2     1    18    1
     3     2    19    1
     4     2    20    1
     5     3    18    1
     6     3    24    1
     7     4    19    1
     8     4    27    1
     9     5    16    1
    10     5    57    1
    11     6    17    1
    12     6    58    1
    13     7    21    1
    14     7    59    1
    15     8    22    1
    16     8    60    1
    17     9    23    1
    18     9    61    1
    19    10    25    1
    20    10    62    1
    21    11    29    1
    22    11    31    1
    23    12    33    2
    24    13    34    1
    25    13    70    1
    26    14    41    1
    27    14    73    1
    28    15    16    1
    29    15    19    1
    30    15    42    1
    31    16    17    1
    32    16    43    1
    33    17    20    1
    34    17    44    1
    35    18    21    1
    36    18    45    1
    37    19    46    1
    38    20    25    1
    39    20    47    1
    40    21    22    1
    41    21    48    1
    42    22    23    1
    43    22    49    1
    44    23    24    1
    45    23    50    1
    46    24    26    1
    47    24    51    1
    48    25    52    1
    49    25    53    1
    50    26    54    1
    51    26    55    1
    52    26    56    1
    53    27    28   ar
    54    27    30   ar
    55    28    29   ar
    56    28    33    1
    57    29    35   ar
    58    30    34   ar
    59    30    63    1
    60    31    32    1
    61    31    36    1
    62    31    64    1
    63    32    33    1
    64    32    65    1
    65    32    66    1
    66    34    35   ar
    67    35    67    1
    68    36    37   ar
    69    36    38   ar
    70    37    39   ar
    71    37    68    1
    72    38    40   ar
    73    38    69    1
    74    39    41   ar
    75    39    71    1
    76    40    41   ar
    77    40    72    1
