@<TRIPOS>MOLECULE
IMPHY005721
 45 44 0 0 0
SMALL
GASTEIGER

@<TRIPOS>ATOM
      1 O           8.9282    1.2500    0.0000 O.3     1  UNL1       -0.3889
      2 O           8.0622   -1.2500    0.0000 O.3     1  UNL1       -0.3852
      3 O           5.4641    1.2500    0.0000 O.2     1  UNL1       -0.2709
      4 N           4.5981   -0.2500    0.0000 N.am    1  UNL1       -0.3116
      5 C           9.7942   -0.2500    0.0000 C.3     1  UNL1       -0.0241
      6 C           8.9282    0.2500    0.0000 C.3     1  UNL1        0.0846
      7 C          10.6603    0.2500    0.0000 C.3     1  UNL1       -0.0506
      8 C          11.5263   -0.2500    0.0000 C.3     1  UNL1       -0.0532
      9 C           8.0622   -0.2500    0.0000 C.3     1  UNL1        0.0996
     10 C          12.3923    0.2500    0.0000 C.3     1  UNL1       -0.0559
     11 C           2.8660   -0.2500    0.0000 C.3     1  UNL1       -0.0311
     12 C           7.1962    0.2500    0.0000 C.2     1  UNL1       -0.0485
     13 C           3.7320    0.2500    0.0000 C.3     1  UNL1        0.0142
     14 C          13.2583   -0.2500    0.0000 C.3     1  UNL1       -0.0653
     15 C           6.3301   -0.2500    0.0000 C.2     1  UNL1       -0.0013
     16 C           2.0000    0.2500    0.0000 C.3     1  UNL1       -0.0612
     17 C           2.8660   -1.2500    0.0000 C.3     1  UNL1       -0.0612
     18 C           5.4641    0.2500    0.0000 C.2     1  UNL1        0.2367
     19 H           9.3957   -0.7249    0.0000 H       1  UNL1        0.0291
     20 H          10.1928   -0.7249    0.0000 H       1  UNL1        0.0291
     21 H           9.4651    0.5600    0.0000 H       1  UNL1        0.0622
     22 H          11.0588    0.7249    0.0000 H       1  UNL1        0.0266
     23 H          10.2617    0.7249    0.0000 H       1  UNL1        0.0266
     24 H          11.1278   -0.7249    0.0000 H       1  UNL1        0.0265
     25 H          11.9248   -0.7249    0.0000 H       1  UNL1        0.0265
     26 H           7.5252   -0.5600    0.0000 H       1  UNL1        0.0664
     27 H          12.7908    0.7249    0.0000 H       1  UNL1        0.0263
     28 H          11.9938    0.7249    0.0000 H       1  UNL1        0.0263
     29 H           2.8660    0.3700    0.0000 H       1  UNL1        0.0311
     30 H           7.1962    0.8700    0.0000 H       1  UNL1        0.0600
     31 H           4.1306    0.7249    0.0000 H       1  UNL1        0.0465
     32 H           3.3335    0.7249    0.0000 H       1  UNL1        0.0465
     33 H          12.9483   -0.7869    0.0000 H       1  UNL1        0.0230
     34 H          13.7953   -0.5600    0.0000 H       1  UNL1        0.0230
     35 H          13.5683    0.2869    0.0000 H       1  UNL1        0.0230
     36 H           9.4651    1.5600    0.0000 H       1  UNL1        0.2099
     37 H           2.3100    0.7869    0.0000 H       1  UNL1        0.0233
     38 H           1.4631    0.5600    0.0000 H       1  UNL1        0.0233
     39 H           1.6900   -0.2869    0.0000 H       1  UNL1        0.0233
     40 H           2.2460   -1.2500    0.0000 H       1  UNL1        0.0233
     41 H           2.8660   -1.8700    0.0000 H       1  UNL1        0.0233
     42 H           3.4860   -1.2500    0.0000 H       1  UNL1        0.0233
     43 H           6.3301   -0.8700    0.0000 H       1  UNL1        0.0667
     44 H           4.5981   -0.8700    0.0000 H       1  UNL1        0.1490
     45 H           7.5252   -1.5600    0.0000 H       1  UNL1        0.2103
@<TRIPOS>BOND
     1     1     6    1
     2     1    36    1
     3     2     9    1
     4     2    45    1
     5     3    18    2
     6     4    13    1
     7     4    18   am
     8     4    44    1
     9     5     6    1
    10     5     7    1
    11     5    19    1
    12     5    20    1
    13     6     9    1
    14     6    21    1
    15     7     8    1
    16     7    22    1
    17     7    23    1
    18     8    10    1
    19     8    24    1
    20     8    25    1
    21     9    12    1
    22     9    26    1
    23    10    14    1
    24    10    27    1
    25    10    28    1
    26    11    13    1
    27    11    16    1
    28    11    17    1
    29    11    29    1
    30    12    15    2
    31    12    30    1
    32    13    31    1
    33    13    32    1
    34    14    33    1
    35    14    34    1
    36    14    35    1
    37    15    18    1
    38    15    43    1
    39    16    37    1
    40    16    38    1
    41    16    39    1
    42    17    40    1
    43    17    41    1
    44    17    42    1
