@<TRIPOS>MOLECULE
IMPHY007351
 60 63 0 0 0
SMALL
GASTEIGER

@<TRIPOS>ATOM
      1 O           5.1350   -0.5406    0.0000 O.3     1  UNL1       -0.3313
      2 O           6.8671   -0.5406    0.0000 O.3     1  UNL1       -0.4534
      3 O           5.1350   -3.5406    0.0000 O.3     1  UNL1       -0.3864
      4 O           3.4030   -2.5406    0.0000 O.3     1  UNL1       -0.3865
      5 O           6.8671   -2.5406    0.0000 O.3     1  UNL1       -0.3829
      6 O           2.5369   -1.0406    0.0000 O.3     1  UNL1       -0.3924
      7 O           8.6273    0.4737    0.0000 O.2     1  UNL1       -0.4470
      8 O           5.0971    0.4904    0.0000 O.3     1  UNL1       -0.4912
      9 O           6.9141    3.5283    0.0000 O.3     1  UNL1       -0.5058
     10 O          10.3824    2.4535    0.0000 O.3     1  UNL1       -0.5007
     11 O           8.6620    3.4735    0.0000 O.2     1  UNL1       -0.2830
     12 O          12.9398   -1.0763    0.0000 O.3     1  UNL1       -0.4915
     13 O          11.1963   -2.0562    0.0000 O.3     1  UNL1       -0.5033
     14 C           5.1350   -2.5406    0.0000 C.3     1  UNL1        0.1152
     15 C           4.2690   -2.0406    0.0000 C.3     1  UNL1        0.1120
     16 C           6.0010   -2.0406    0.0000 C.3     1  UNL1        0.1454
     17 C           4.2690   -1.0406    0.0000 C.3     1  UNL1        0.1140
     18 C           6.0010   -1.0406    0.0000 C.3     1  UNL1        0.2311
     19 C           3.4030   -0.5406    0.0000 C.3     1  UNL1        0.0731
     20 C           6.8671    0.4594    0.0000 C.ar    1  UNL1        0.2083
     21 C           7.7671    0.9837    0.0000 C.ar    1  UNL1        0.1882
     22 C           5.9670    0.9837    0.0000 C.ar    1  UNL1        0.1688
     23 C           7.7787    1.9836    0.0000 C.ar    1  UNL1        0.1128
     24 C           5.9790    2.0252    0.0000 C.ar    1  UNL1        0.0261
     25 C           6.8910    2.5286    0.0000 C.ar    1  UNL1        0.1350
     26 C           8.6504    2.4736    0.0000 C.ar    1  UNL1        0.2380
     27 C           9.4991    0.9636    0.0000 C.ar    1  UNL1        0.1809
     28 C           9.5106    1.9636    0.0000 C.ar    1  UNL1        0.2082
     29 C          10.3592    0.4537    0.0000 C.ar    1  UNL1        0.0247
     30 C          10.3477   -0.5463    0.0000 C.ar    1  UNL1       -0.0057
     31 C           4.2350    0.9970    0.0000 C.3     1  UNL1        0.0790
     32 C          11.2310    0.9436    0.0000 C.ar    1  UNL1       -0.0473
     33 C          11.2079   -1.0563    0.0000 C.ar    1  UNL1        0.1591
     34 C          12.0912    0.4336    0.0000 C.ar    1  UNL1       -0.0156
     35 C          12.0796   -0.5663    0.0000 C.ar    1  UNL1        0.1613
     36 C          13.8116   -0.5863    0.0000 C.3     1  UNL1        0.0790
     37 H           5.6720   -2.8506    0.0000 H       1  UNL1        0.0648
     38 H           4.2690   -2.6606    0.0000 H       1  UNL1        0.0647
     39 H           6.5380   -1.7306    0.0000 H       1  UNL1        0.0683
     40 H           4.2690   -0.4206    0.0000 H       1  UNL1        0.0647
     41 H           6.0010   -0.4206    0.0000 H       1  UNL1        0.1084
     42 H           3.8015   -0.0657    0.0000 H       1  UNL1        0.0584
     43 H           3.0044   -0.0657    0.0000 H       1  UNL1        0.0584
     44 H           4.5981   -3.8506    0.0000 H       1  UNL1        0.2100
     45 H           3.4030   -3.1606    0.0000 H       1  UNL1        0.2100
     46 H           6.8671   -3.1606    0.0000 H       1  UNL1        0.2102
     47 H           2.0000   -0.7306    0.0000 H       1  UNL1        0.2095
     48 H           5.4470    2.3435    0.0000 H       1  UNL1        0.0692
     49 H           6.3845    3.8506    0.0000 H       1  UNL1        0.2922
     50 H           9.8072   -0.8500    0.0000 H       1  UNL1        0.0662
     51 H          11.2382    1.5636    0.0000 H       1  UNL1        0.0626
     52 H           4.5491    1.5316    0.0000 H       1  UNL1        0.0660
     53 H           3.7005    1.3112    0.0000 H       1  UNL1        0.0660
     54 H           3.9209    0.4625    0.0000 H       1  UNL1        0.0660
     55 H          10.3895    3.0735    0.0000 H       1  UNL1        0.2924
     56 H          12.6317    0.7374    0.0000 H       1  UNL1        0.0655
     57 H          11.7296   -2.3724    0.0000 H       1  UNL1        0.2923
     58 H          14.1153   -1.1268    0.0000 H       1  UNL1        0.0660
     59 H          14.3520   -0.2826    0.0000 H       1  UNL1        0.0660
     60 H          13.5078   -0.0459    0.0000 H       1  UNL1        0.0660
@<TRIPOS>BOND
     1     1    17    1
     2     1    18    1
     3    18     2    1
     4     2    20    1
     5    14     3    1
     6     3    44    1
     7    15     4    1
     8     4    45    1
     9    16     5    1
    10     5    46    1
    11     6    19    1
    12     6    47    1
    13     7    21   ar
    14     7    27   ar
    15     8    22    1
    16     8    31    1
    17     9    25    1
    18     9    49    1
    19    10    28    1
    20    10    55    1
    21    11    26    2
    22    12    35    1
    23    12    36    1
    24    13    33    1
    25    13    57    1
    26    14    15    1
    27    14    16    1
    28    14    37    1
    29    15    17    1
    30    15    38    1
    31    16    18    1
    32    16    39    1
    33    17    19    1
    34    17    40    1
    35    18    41    1
    36    19    42    1
    37    19    43    1
    38    20    21   ar
    39    20    22   ar
    40    21    23   ar
    41    22    24   ar
    42    23    25   ar
    43    23    26   ar
    44    24    25   ar
    45    24    48    1
    46    26    28   ar
    47    27    28   ar
    48    27    29    1
    49    29    30   ar
    50    29    32   ar
    51    30    33   ar
    52    30    50    1
    53    31    52    1
    54    31    53    1
    55    31    54    1
    56    32    34   ar
    57    32    51    1
    58    33    35   ar
    59    34    35   ar
    60    34    56    1
    61    36    58    1
    62    36    59    1
    63    36    60    1
