@<TRIPOS>MOLECULE
IMPHY017463
 25 24 0 0 0
SMALL
GASTEIGER

@<TRIPOS>ATOM
      1 C           2.8660    0.2500    0.0000 C.3     1  UNL1       -0.0359
      2 C           3.7320    0.7500    0.0000 C.3     1  UNL1        0.0115
      3 C           2.0000    0.7500    0.0000 C.3     1  UNL1       -0.0618
      4 C           2.8660   -0.7500    0.0000 C.3     1  UNL1       -0.0618
      5 C           7.1962   -0.2500    0.0000 C.3     1  UNL1       -0.0450
      6 C           6.3301   -0.7500    0.0000 C.3     1  UNL1        0.0089
      7 C           4.5981    0.2500    0.0000 C.1     1  UNL1       -0.1020
      8 C           8.0622   -0.7500    0.0000 C.3     1  UNL1       -0.0644
      9 C           5.4641   -0.2500    0.0000 C.1     1  UNL1       -0.1022
     10 H           2.8660    0.8700    0.0000 H       1  UNL1        0.0304
     11 H           4.1306    1.2250    0.0000 H       1  UNL1        0.0400
     12 H           3.3335    1.2250    0.0000 H       1  UNL1        0.0400
     13 H           2.3100    1.2869    0.0000 H       1  UNL1        0.0233
     14 H           1.4631    1.0600    0.0000 H       1  UNL1        0.0233
     15 H           1.6900    0.2131    0.0000 H       1  UNL1        0.0233
     16 H           2.2460   -0.7500    0.0000 H       1  UNL1        0.0233
     17 H           2.8660   -1.3700    0.0000 H       1  UNL1        0.0233
     18 H           3.4860   -0.7500    0.0000 H       1  UNL1        0.0233
     19 H           7.5947    0.2249    0.0000 H       1  UNL1        0.0272
     20 H           6.7976    0.2249    0.0000 H       1  UNL1        0.0272
     21 H           5.9316   -1.2250    0.0000 H       1  UNL1        0.0397
     22 H           6.7287   -1.2250    0.0000 H       1  UNL1        0.0397
     23 H           7.7522   -1.2869    0.0000 H       1  UNL1        0.0230
     24 H           8.5991   -1.0600    0.0000 H       1  UNL1        0.0230
     25 H           8.3722   -0.2131    0.0000 H       1  UNL1        0.0230
@<TRIPOS>BOND
     1     1     2    1
     2     1     3    1
     3     1     4    1
     4     1    10    1
     5     2     7    1
     6     2    11    1
     7     2    12    1
     8     3    13    1
     9     3    14    1
    10     3    15    1
    11     4    16    1
    12     4    17    1
    13     4    18    1
    14     5     6    1
    15     5     8    1
    16     5    19    1
    17     5    20    1
    18     6     9    1
    19     6    21    1
    20     6    22    1
    21     7     9    3
    22     8    23    1
    23     8    24    1
    24     8    25    1
