@<TRIPOS>MOLECULE
IMPHY007137
 23 23 0 0 0
SMALL
GASTEIGER

@<TRIPOS>ATOM
      1 O           5.4641    1.2500    0.0000 O.3     1  UNL1       -0.4644
      2 O           3.7320    1.2500    0.0000 O.2     1  UNL1       -0.2449
      3 N           2.8660   -0.2500    0.0000 N.pl3   1  UNL1       -0.3463
      4 C           3.7320   -0.7500    0.0000 C.ar    1  UNL1        0.0410
      5 C           4.5981   -0.2500    0.0000 C.ar    1  UNL1        0.0797
      6 C           3.7320   -1.7500    0.0000 C.ar    1  UNL1       -0.0401
      7 C           5.4641   -0.7500    0.0000 C.ar    1  UNL1       -0.0460
      8 C           4.5981   -2.2500    0.0000 C.ar    1  UNL1       -0.0600
      9 C           5.4641   -1.7500    0.0000 C.ar    1  UNL1       -0.0609
     10 C           4.5981    0.7500    0.0000 C.2     1  UNL1        0.3407
     11 C           2.0000   -0.7500    0.0000 C.3     1  UNL1       -0.0024
     12 C           5.4641    2.2500    0.0000 C.3     1  UNL1        0.0820
     13 H           3.1951   -2.0600    0.0000 H       1  UNL1        0.0636
     14 H           6.0010   -0.4400    0.0000 H       1  UNL1        0.0626
     15 H           2.8660    0.3700    0.0000 H       1  UNL1        0.1458
     16 H           4.5981   -2.8700    0.0000 H       1  UNL1        0.0618
     17 H           6.0010   -2.0600    0.0000 H       1  UNL1        0.0618
     18 H           1.6900   -0.2131    0.0000 H       1  UNL1        0.0425
     19 H           1.4631   -1.0600    0.0000 H       1  UNL1        0.0425
     20 H           2.3100   -1.2869    0.0000 H       1  UNL1        0.0425
     21 H           6.0841    2.2500    0.0000 H       1  UNL1        0.0661
     22 H           5.4641    2.8700    0.0000 H       1  UNL1        0.0661
     23 H           4.8441    2.2500    0.0000 H       1  UNL1        0.0661
@<TRIPOS>BOND
     1     1    10    1
     2     1    12    1
     3     2    10    2
     4     3     4    1
     5     3    11    1
     6     3    15    1
     7     4     5   ar
     8     4     6   ar
     9     5     7   ar
    10     5    10    1
    11     6     8   ar
    12     6    13    1
    13     7     9   ar
    14     7    14    1
    15     8     9   ar
    16     8    16    1
    17     9    17    1
    18    11    18    1
    19    11    19    1
    20    11    20    1
    21    12    21    1
    22    12    22    1
    23    12    23    1
