@<TRIPOS>MOLECULE
IMPHY007828
 187 196 0 0 0
SMALL
GASTEIGER

@<TRIPOS>ATOM
      1 O           8.0622   -4.2715    0.0000 O.3     1  UNL1       -0.3401
      2 O           8.0622   -1.2715    0.0000 O.3     1  UNL1       -0.3394
      3 O           6.3301   -4.2715    0.0000 O.3     1  UNL1       -0.3405
      4 O           9.7942   -1.2715    0.0000 O.3     1  UNL1       -0.3460
      5 O           6.3301   -3.2715    0.0000 O.3     1  UNL1       -0.3864
      6 O           9.7942   -3.2715    0.0000 O.3     1  UNL1       -0.3841
      7 O          11.5263   -0.2715    0.0000 O.3     1  UNL1       -0.3313
      8 O           8.0622   -6.2715    0.0000 O.3     1  UNL1       -0.3841
      9 O           6.3301   -7.2715    0.0000 O.3     1  UNL1       -0.3864
     10 O           4.5981   -6.2715    0.0000 O.3     1  UNL1       -0.3865
     11 O           6.3301   -0.2715    0.0000 O.3     1  UNL1       -0.4589
     12 O           9.7942    1.7285    0.0000 O.3     1  UNL1       -0.3865
     13 O          11.5263    2.7285    0.0000 O.3     1  UNL1       -0.3864
     14 O          13.2583   -0.2715    0.0000 O.3     1  UNL1       -0.4515
     15 O          13.2583    1.7285    0.0000 O.3     1  UNL1       -0.3829
     16 O           4.5981   -3.2715    0.0000 O.3     1  UNL1       -0.3924
     17 O          18.5142    4.7702    0.0000 O.3     1  UNL1       -0.3302
     18 O          17.5885   -1.7715    0.0000 O.3     1  UNL1       -0.3313
     19 O          15.8564    0.2285    0.0000 O.2     1  UNL1       -0.1997
     20 O          17.6424    3.2736    0.0000 O.3     1  UNL1       -0.4604
     21 O          16.7224   -3.2715    0.0000 O.3     1  UNL1       -0.4571
     22 O          15.9219    6.2803    0.0000 O.3     1  UNL1       -0.3864
     23 O          17.6578    7.2736    0.0000 O.3     1  UNL1       -0.3864
     24 O          15.9142    4.2803    0.0000 O.3     1  UNL1       -0.3829
     25 O           4.5981   -0.2715    0.0000 O.2     1  UNL1       -0.2456
     26 O          20.1865   -3.2715    0.0000 O.3     1  UNL1       -0.3864
     27 O          20.1865   -1.2715    0.0000 O.3     1  UNL1       -0.3865
     28 O          18.4545   -4.2715    0.0000 O.3     1  UNL1       -0.3829
     29 O          20.2501    5.7636    0.0000 O.3     1  UNL1       -0.4589
     30 O          19.3205    0.2285    0.0000 O.3     1  UNL1       -0.3924
     31 O          14.1026    3.2600    0.0000 O.3     1  UNL1       -0.5057
     32 O          14.9904   -4.2715    0.0000 O.3     1  UNL1       -0.5033
     33 O          21.1219    7.2602    0.0000 O.2     1  UNL1       -0.2456
     34 O           2.8660    4.7285    0.0000 O.3     1  UNL1       -0.4913
     35 O           6.3301    4.7285    0.0000 O.3     1  UNL1       -0.4913
     36 O           4.5981    5.7285    0.0000 O.3     1  UNL1       -0.5009
     37 O          26.3141    6.2402    0.0000 O.3     1  UNL1       -0.4913
     38 O          24.5705    3.2469    0.0000 O.3     1  UNL1       -0.4913
     39 O          26.3064    4.2402    0.0000 O.3     1  UNL1       -0.5009
     40 C           8.0622   -3.2715    0.0000 C.3     1  UNL1        0.1206
     41 C           7.1962   -2.7715    0.0000 C.3     1  UNL1        0.1133
     42 C           8.9282   -2.7715    0.0000 C.3     1  UNL1        0.1345
     43 C           7.1962   -1.7715    0.0000 C.3     1  UNL1        0.1240
     44 C           8.9282   -1.7715    0.0000 C.3     1  UNL1        0.1881
     45 C           7.1962   -4.7715    0.0000 C.3     1  UNL1        0.1884
     46 C           7.1962   -5.7715    0.0000 C.3     1  UNL1        0.1341
     47 C           6.3301   -6.2715    0.0000 C.3     1  UNL1        0.1141
     48 C           5.4641   -5.7715    0.0000 C.3     1  UNL1        0.1119
     49 C           5.4641   -4.7715    0.0000 C.3     1  UNL1        0.1130
     50 C          10.6603    0.2285    0.0000 C.3     1  UNL1        0.1144
     51 C          10.6603    1.2285    0.0000 C.3     1  UNL1        0.1120
     52 C           6.3301   -1.2715    0.0000 C.3     1  UNL1        0.1215
     53 C           9.7942   -0.2715    0.0000 C.3     1  UNL1        0.0796
     54 C          11.5263    1.7285    0.0000 C.3     1  UNL1        0.1152
     55 C          12.3923    1.2285    0.0000 C.3     1  UNL1        0.1454
     56 C          12.3923    0.2285    0.0000 C.3     1  UNL1        0.2312
     57 C           4.5981   -4.2715    0.0000 C.3     1  UNL1        0.0730
     58 C          14.1244    0.2285    0.0000 C.ar    1  UNL1        0.2288
     59 C           5.4641    0.2285    0.0000 C.2     1  UNL1        0.3320
     60 C          16.7860    5.7769    0.0000 C.3     1  UNL1        0.1152
     61 C          17.6539    6.2736    0.0000 C.3     1  UNL1        0.1130
     62 C          16.7821    4.7769    0.0000 C.3     1  UNL1        0.1454
     63 C          18.5180    5.7702    0.0000 C.3     1  UNL1        0.1250
     64 C          17.6462    4.2736    0.0000 C.3     1  UNL1        0.2308
     65 C          19.3205   -2.7715    0.0000 C.3     1  UNL1        0.1152
     66 C          19.3205   -1.7715    0.0000 C.3     1  UNL1        0.1120
     67 C          18.4545   -3.2715    0.0000 C.3     1  UNL1        0.1454
     68 C          18.4545   -1.2715    0.0000 C.3     1  UNL1        0.1140
     69 C          14.9904   -0.2715    0.0000 C.ar    1  UNL1        0.4046
     70 C          17.5885   -2.7715    0.0000 C.3     1  UNL1        0.2310
     71 C          14.1244    1.2285    0.0000 C.ar    1  UNL1        0.0093
     72 C          14.9904    1.7285    0.0000 C.ar    1  UNL1        0.1241
     73 C          19.3860    6.2669    0.0000 C.3     1  UNL1        0.1215
     74 C           5.4641    1.2285    0.0000 C.2     1  UNL1        0.0231
     75 C          14.9904   -1.2715    0.0000 C.ar    1  UNL1        0.0865
     76 C          15.8564    1.2285    0.0000 C.ar    1  UNL1        0.3708
     77 C          18.4545   -0.2715    0.0000 C.3     1  UNL1        0.0731
     78 C          16.7744    2.7769    0.0000 C.ar    1  UNL1        0.1364
     79 C          16.7664    1.7353    0.0000 C.ar    1  UNL1        0.0851
     80 C          14.9743    2.7700    0.0000 C.ar    1  UNL1        0.1366
     81 C          15.8564   -2.7715    0.0000 C.ar    1  UNL1        0.1660
     82 C          15.8564   -1.7715    0.0000 C.ar    1  UNL1        0.0001
     83 C          15.8724    3.2978    0.0000 C.ar    1  UNL1        0.0229
     84 C          14.1244   -1.7715    0.0000 C.ar    1  UNL1       -0.0418
     85 C           4.5981    1.7285    0.0000 C.2     1  UNL1       -0.0476
     86 C          14.9904   -3.2715    0.0000 C.ar    1  UNL1        0.1586
     87 C          14.1244   -2.7715    0.0000 C.ar    1  UNL1       -0.0157
     88 C           4.5981    2.7285    0.0000 C.ar    1  UNL1       -0.0177
     89 C          21.1180    6.2602    0.0000 C.2     1  UNL1        0.3320
     90 C           5.4641    3.2285    0.0000 C.ar    1  UNL1       -0.0089
     91 C           3.7320    3.2285    0.0000 C.ar    1  UNL1       -0.0089
     92 C          21.9821    5.7569    0.0000 C.2     1  UNL1        0.0231
     93 C           3.7320    4.2285    0.0000 C.ar    1  UNL1        0.1655
     94 C           5.4641    4.2285    0.0000 C.ar    1  UNL1        0.1655
     95 C           4.5981    4.7285    0.0000 C.ar    1  UNL1        0.2010
     96 C          22.8501    6.2536    0.0000 C.2     1  UNL1       -0.0476
     97 C          23.7142    5.7502    0.0000 C.ar    1  UNL1       -0.0177
     98 C           2.0000    4.2285    0.0000 C.3     1  UNL1        0.0790
     99 C           6.3301    5.7285    0.0000 C.3     1  UNL1        0.0790
    100 C          23.7103    4.7502    0.0000 C.ar    1  UNL1       -0.0089
    101 C          24.5821    6.2469    0.0000 C.ar    1  UNL1       -0.0089
    102 C          25.4462    5.7435    0.0000 C.ar    1  UNL1        0.1655
    103 C          24.5744    4.2469    0.0000 C.ar    1  UNL1        0.1655
    104 C          25.4423    4.7436    0.0000 C.ar    1  UNL1        0.2010
    105 C          26.3180    7.2402    0.0000 C.3     1  UNL1        0.0790
    106 C          25.4346    2.7436    0.0000 C.3     1  UNL1        0.0790
    107 H           8.5991   -3.5815    0.0000 H       1  UNL1        0.0651
    108 H           7.1962   -3.3915    0.0000 H       1  UNL1        0.0647
    109 H           8.9282   -3.3915    0.0000 H       1  UNL1        0.0671
    110 H           7.1962   -1.1515    0.0000 H       1  UNL1        0.0658
    111 H           9.4651   -2.0815    0.0000 H       1  UNL1        0.0937
    112 H           7.1962   -4.1515    0.0000 H       1  UNL1        0.0938
    113 H           7.1962   -6.3915    0.0000 H       1  UNL1        0.0671
    114 H           5.7932   -6.5815    0.0000 H       1  UNL1        0.0648
    115 H           4.9272   -5.4615    0.0000 H       1  UNL1        0.0647
    116 H           5.4641   -4.1515    0.0000 H       1  UNL1        0.0647
    117 H          10.6603   -0.3915    0.0000 H       1  UNL1        0.0647
    118 H          10.6603    1.8485    0.0000 H       1  UNL1        0.0647
    119 H           5.7196   -1.1638    0.0000 H       1  UNL1        0.0725
    120 H           6.1181   -1.8541    0.0000 H       1  UNL1        0.0725
    121 H           9.5822    0.3111    0.0000 H       1  UNL1        0.0587
    122 H           9.1836   -0.3792    0.0000 H       1  UNL1        0.0587
    123 H          12.0632    2.0385    0.0000 H       1  UNL1        0.0648
    124 H          12.3923    1.8485    0.0000 H       1  UNL1        0.0683
    125 H          12.3923   -0.3915    0.0000 H       1  UNL1        0.1084
    126 H           3.9875   -4.1638    0.0000 H       1  UNL1        0.0584
    127 H           4.3860   -4.8541    0.0000 H       1  UNL1        0.0584
    128 H           5.7932   -2.9615    0.0000 H       1  UNL1        0.2100
    129 H          10.3312   -2.9615    0.0000 H       1  UNL1        0.2101
    130 H           8.0622   -6.8915    0.0000 H       1  UNL1        0.2101
    131 H           5.7932   -7.5815    0.0000 H       1  UNL1        0.2100
    132 H           4.0611   -5.9615    0.0000 H       1  UNL1        0.2100
    133 H           9.7942    2.3485    0.0000 H       1  UNL1        0.2100
    134 H          10.9893    3.0385    0.0000 H       1  UNL1        0.2100
    135 H          13.2583    2.3485    0.0000 H       1  UNL1        0.2102
    136 H           4.0611   -2.9615    0.0000 H       1  UNL1        0.2095
    137 H          17.3217    5.4648    0.0000 H       1  UNL1        0.0648
    138 H          17.1182    6.5856    0.0000 H       1  UNL1        0.0647
    139 H          16.2464    5.0890    0.0000 H       1  UNL1        0.0683
    140 H          19.0538    5.4582    0.0000 H       1  UNL1        0.0658
    141 H          17.1081    3.9657    0.0000 H       1  UNL1        0.1084
    142 H          19.3205   -3.3915    0.0000 H       1  UNL1        0.0648
    143 H          19.8574   -2.0815    0.0000 H       1  UNL1        0.0647
    144 H          18.9914   -3.5815    0.0000 H       1  UNL1        0.0683
    145 H          17.9175   -0.9615    0.0000 H       1  UNL1        0.0647
    146 H          17.5885   -3.3915    0.0000 H       1  UNL1        0.1084
    147 H          13.5874    1.5385    0.0000 H       1  UNL1        0.0667
    148 H          19.7863    6.7403    0.0000 H       1  UNL1        0.0725
    149 H          18.9893    6.7434    0.0000 H       1  UNL1        0.0725
    150 H           6.0010    1.5385    0.0000 H       1  UNL1        0.0689
    151 H          18.2424    0.3111    0.0000 H       1  UNL1        0.0584
    152 H          17.8439   -0.3792    0.0000 H       1  UNL1        0.0584
    153 H          17.2997    1.4192    0.0000 H       1  UNL1        0.0749
    154 H          15.9243    6.9002    0.0000 H       1  UNL1        0.2100
    155 H          18.1959    7.5815    0.0000 H       1  UNL1        0.2100
    156 H          15.3785    4.5923    0.0000 H       1  UNL1        0.2102
    157 H          16.3933   -1.4615    0.0000 H       1  UNL1        0.0664
    158 H          15.8700    3.9178    0.0000 H       1  UNL1        0.0691
    159 H          20.1865   -3.8915    0.0000 H       1  UNL1        0.2100
    160 H          20.1865   -0.6515    0.0000 H       1  UNL1        0.2100
    161 H          17.9175   -4.5815    0.0000 H       1  UNL1        0.2102
    162 H          13.5874   -1.4615    0.0000 H       1  UNL1        0.0628
    163 H           4.0611    1.4185    0.0000 H       1  UNL1        0.0626
    164 H          13.5874   -3.0815    0.0000 H       1  UNL1        0.0655
    165 H          19.3205    0.8485    0.0000 H       1  UNL1        0.2095
    166 H          14.0954    3.8799    0.0000 H       1  UNL1        0.2922
    167 H          14.4534   -4.5815    0.0000 H       1  UNL1        0.2923
    168 H           6.0010    2.9185    0.0000 H       1  UNL1        0.0661
    169 H           3.1951    2.9185    0.0000 H       1  UNL1        0.0661
    170 H          21.9797    5.1369    0.0000 H       1  UNL1        0.0689
    171 H          22.8525    6.8736    0.0000 H       1  UNL1        0.0626
    172 H           4.0611    6.0385    0.0000 H       1  UNL1        0.2924
    173 H           1.6900    4.7654    0.0000 H       1  UNL1        0.0660
    174 H           1.4631    3.9185    0.0000 H       1  UNL1        0.0660
    175 H           2.3100    3.6916    0.0000 H       1  UNL1        0.0660
    176 H           6.9501    5.7285    0.0000 H       1  UNL1        0.0660
    177 H           6.3301    6.3485    0.0000 H       1  UNL1        0.0660
    178 H           5.7101    5.7285    0.0000 H       1  UNL1        0.0660
    179 H          23.1722    4.4423    0.0000 H       1  UNL1        0.0661
    180 H          24.5845    6.8669    0.0000 H       1  UNL1        0.0661
    181 H          26.8446    4.5481    0.0000 H       1  UNL1        0.2924
    182 H          26.9380    7.2378    0.0000 H       1  UNL1        0.0660
    183 H          26.3204    7.8602    0.0000 H       1  UNL1        0.0660
    184 H          25.6980    7.2426    0.0000 H       1  UNL1        0.0660
    185 H          25.1226    2.2078    0.0000 H       1  UNL1        0.0660
    186 H          25.9704    2.4315    0.0000 H       1  UNL1        0.0660
    187 H          25.7467    3.2793    0.0000 H       1  UNL1        0.0660
@<TRIPOS>UNITY_ATOM_ATTR
19 1
charge 1
@<TRIPOS>BOND
     1     1    40    1
     2     1    45    1
     3     2    43    1
     4     2    44    1
     5     3    45    1
     6     3    49    1
     7     4    44    1
     8     4    53    1
     9     5    41    1
    10     5   128    1
    11     6    42    1
    12     6   129    1
    13     7    50    1
    14     7    56    1
    15     8    46    1
    16     8   130    1
    17     9    47    1
    18     9   131    1
    19    10    48    1
    20    10   132    1
    21    11    52    1
    22    11    59    1
    23    12    51    1
    24    12   133    1
    25    13    54    1
    26    13   134    1
    27    14    56    1
    28    14    58    1
    29    15    55    1
    30    15   135    1
    31    16    57    1
    32    16   136    1
    33    17    63    1
    34    17    64    1
    35    18    68    1
    36    18    70    1
    37    19    69   ar
    38    19    76   ar
    39    20    64    1
    40    20    78    1
    41    21    70    1
    42    21    81    1
    43    22    60    1
    44    22   154    1
    45    23    61    1
    46    23   155    1
    47    24    62    1
    48    24   156    1
    49    25    59    2
    50    26    65    1
    51    26   159    1
    52    27    66    1
    53    27   160    1
    54    28    67    1
    55    28   161    1
    56    29    73    1
    57    29    89    1
    58    30    77    1
    59    30   165    1
    60    31    80    1
    61    31   166    1
    62    32    86    1
    63    32   167    1
    64    33    89    2
    65    34    93    1
    66    34    98    1
    67    35    94    1
    68    35    99    1
    69    36    95    1
    70    36   172    1
    71    37   102    1
    72    37   105    1
    73    38   103    1
    74    38   106    1
    75    39   104    1
    76    39   181    1
    77    40    41    1
    78    40    42    1
    79    40   107    1
    80    41    43    1
    81    41   108    1
    82    42    44    1
    83    42   109    1
    84    43    52    1
    85    43   110    1
    86    44   111    1
    87    45    46    1
    88    45   112    1
    89    46    47    1
    90    46   113    1
    91    47    48    1
    92    47   114    1
    93    48    49    1
    94    48   115    1
    95    49    57    1
    96    49   116    1
    97    50    51    1
    98    50    53    1
    99    50   117    1
   100    51    54    1
   101    51   118    1
   102    52   119    1
   103    52   120    1
   104    53   121    1
   105    53   122    1
   106    54    55    1
   107    54   123    1
   108    55    56    1
   109    55   124    1
   110    56   125    1
   111    57   126    1
   112    57   127    1
   113    58    69   ar
   114    58    71   ar
   115    59    74    1
   116    60    61    1
   117    60    62    1
   118    60   137    1
   119    61    63    1
   120    61   138    1
   121    62    64    1
   122    62   139    1
   123    63    73    1
   124    63   140    1
   125    64   141    1
   126    65    66    1
   127    65    67    1
   128    65   142    1
   129    66    68    1
   130    66   143    1
   131    67    70    1
   132    67   144    1
   133    68    77    1
   134    68   145    1
   135    69    75    1
   136    70   146    1
   137    71    72   ar
   138    71   147    1
   139    72    76   ar
   140    72    80   ar
   141    73   148    1
   142    73   149    1
   143    74    85    2
   144    74   150    1
   145    75    82   ar
   146    75    84   ar
   147    76    79   ar
   148    77   151    1
   149    77   152    1
   150    78    79   ar
   151    78    83   ar
   152    79   153    1
   153    80    83   ar
   154    81    82   ar
   155    81    86   ar
   156    82   157    1
   157    83   158    1
   158    84    87   ar
   159    84   162    1
   160    85    88    1
   161    85   163    1
   162    86    87   ar
   163    87   164    1
   164    88    90   ar
   165    88    91   ar
   166    89    92    1
   167    90    94   ar
   168    90   168    1
   169    91    93   ar
   170    91   169    1
   171    92    96    2
   172    92   170    1
   173    93    95   ar
   174    94    95   ar
   175    96    97    1
   176    96   171    1
   177    97   100   ar
   178    97   101   ar
   179    98   173    1
   180    98   174    1
   181    98   175    1
   182    99   176    1
   183    99   177    1
   184    99   178    1
   185   100   103   ar
   186   100   179    1
   187   101   102   ar
   188   101   180    1
   189   102   104   ar
   190   103   104   ar
   191   105   182    1
   192   105   183    1
   193   105   184    1
   194   106   185    1
   195   106   186    1
   196   106   187    1
