@<TRIPOS>MOLECULE
IMPHY010753
 69 73 0 0 0
SMALL
GASTEIGER

@<TRIPOS>ATOM
      1 O          10.0165   -7.5704    0.0000 O.3     1  UNL1       -0.3284
      2 C          11.1235   -8.2131    0.0000 C.3     1  UNL1        0.2707
      3 C          11.1235   -9.5165    0.0000 C.3     1  UNL1        0.2500
      4 C          10.0165  -10.1593    0.0000 C.3     1  UNL1        0.2333
      5 C           8.9095   -9.5165    0.0000 C.3     1  UNL1        0.1874
      6 C           8.9095   -8.2131    0.0000 C.3     1  UNL1        0.1487
      7 O          12.2483   -7.5704    0.0000 O.3     1  UNL1       -0.3219
      8 C          12.2840   -5.2850    0.0000 C.3     1  UNL1        0.2162
      9 C          13.4088   -4.6422    0.0000 C.3     1  UNL1        0.2333
     10 O          15.0693   -5.4814    0.0000 O.3     1  UNL1       -0.4468
     11 C          16.7477   -4.4994    0.0000 C.2     1  UNL1        0.3170
     12 C          16.7477   -3.1960    0.0000 C.3     1  UNL1        0.1096
     13 C          17.8547   -2.5711    0.0000 C.3     1  UNL1        0.0116
     14 C          16.7477   -1.9283    0.0000 C.3     1  UNL1        0.0006
     15 C          16.7477   -0.6428    0.0000 C.3     1  UNL1        0.0000
     16 C          15.6228    0.0000    0.0000 C.3     1  UNL1        0.0000
     17 C          14.5158   -0.6428    0.0000 C.3     1  UNL1        0.0000
     18 C          13.3910    0.0000    0.0000 C.3     1  UNL1        0.0001
     19 C          12.2840   -0.6428    0.0000 C.3     1  UNL1        0.0025
     20 C          11.1770    0.0000    0.0000 C.3     1  UNL1        0.0296
     21 C          10.0522   -0.6428    0.0000 C.3     1  UNL1        0.1179
     22 O          10.0700   -2.7675    0.0000 O.3     1  UNL1       -0.3312
     23 C           8.9452   -3.4102    0.0000 C.3     1  UNL1        0.2660
     24 O           7.8203   -2.7675    0.0000 O.3     1  UNL1       -0.3284
     25 C           6.7134   -3.4102    0.0000 C.3     1  UNL1        0.1508
     26 C           6.7134   -4.7136    0.0000 C.3     1  UNL1        0.2117
     27 C           7.8203   -5.3564    0.0000 C.3     1  UNL1        0.2165
     28 C           8.9452   -4.7136    0.0000 C.3     1  UNL1        0.2066
     29 O          10.0343   -5.2850    0.0000 O.3     1  UNL1       -0.3231
     30 C          11.1770   -4.6422    0.0000 C.3     1  UNL1        0.2674
     31 O          11.1770   -3.3567    0.0000 O.3     1  UNL1       -0.3284
     32 C          12.2840   -2.7139    0.0000 C.3     1  UNL1        0.1519
     33 C          13.4088   -3.3567    0.0000 C.3     1  UNL1        0.2212
     34 O          12.2483  -10.1593    0.0000 O.3     1  UNL1       -0.2137
     35 O          10.0165  -11.4270    0.0000 O.3     1  UNL1       -0.4468
     36 C          11.1235  -12.0876    0.0000 C.2     1  UNL1        0.3165
     37 O          12.2483  -11.4270    0.0000 O.2     1  UNL1       -0.2501
     38 O           7.8025  -10.1593    0.0000 O.3     1  UNL1       -0.3247
     39 C           6.6776   -9.5165    0.0000 C.3     1  UNL1        0.2696
     40 O           6.6776   -8.2131    0.0000 O.3     1  UNL1       -0.3273
     41 C           5.5707   -7.5882    0.0000 C.3     1  UNL1        0.1604
     42 C           4.4637   -8.2131    0.0000 C.3     1  UNL1        0.2285
     43 C           4.4637   -9.5165    0.0000 C.3     1  UNL1        0.2293
     44 C           5.5707  -10.1593    0.0000 C.3     1  UNL1        0.2416
     45 C           7.7846   -7.5704    0.0000 C.3     1  UNL1        0.0349
     46 O          17.8011   -5.1957    0.0000 O.2     1  UNL1       -0.2501
     47 C           8.9452    0.0000    0.0000 C.3     1  UNL1        0.0296
     48 C           7.8203   -0.6428    0.0000 C.3     1  UNL1        0.0025
     49 C           6.7134    0.0000    0.0000 C.3     1  UNL1        0.0001
     50 C           5.5885   -0.6428    0.0000 C.3     1  UNL1        0.0000
     51 C           4.4815    0.0000    0.0000 C.3     1  UNL1        0.0000
     52 C           5.6064   -2.7675    0.0000 C.3     1  UNL1        0.0350
     53 O           5.6064   -5.3564    0.0000 O.3     1  UNL1       -0.2177
     54 O           7.8203   -6.6419    0.0000 O.3     1  UNL1       -0.2175
     55 C          12.2840   -1.4105    0.0000 C.3     1  UNL1        0.0350
     56 O          14.5158   -2.7139    0.0000 O.3     1  UNL1       -0.2165
     57 C          11.1235  -13.3731    0.0000 C.3     1  UNL1        0.0991
     58 C          12.2483  -14.0159    0.0000 C.3     1  UNL1        0.0111
     59 C          12.2483  -15.3014    0.0000 C.3     1  UNL1        0.0006
     60 C           5.5707   -6.2491    0.0000 C.3     1  UNL1        0.0361
     61 O           3.3388   -7.5882    0.0000 O.3     1  UNL1       -0.4470
     62 C           2.2497   -8.2489    0.0000 C.2     1  UNL1        0.3165
     63 O           2.2497   -9.5522    0.0000 O.2     1  UNL1       -0.2501
     64 O           3.3388  -10.1593    0.0000 O.3     1  UNL1       -0.2162
     65 O           5.5707  -11.4448    0.0000 O.3     1  UNL1       -0.2148
     66 C          10.0165  -14.0159    0.0000 C.3     1  UNL1        0.0116
     67 C           1.1070   -7.6061    0.0000 C.3     1  UNL1        0.0991
     68 C           1.1248   -6.3205    0.0000 C.3     1  UNL1        0.0116
     69 C           0.0000   -8.2489    0.0000 C.3     1  UNL1        0.0116
@<TRIPOS>BOND
     1     1     6    1
     2     1     2    1
     3     2     7    1
     4     2     3    1
     5     3     4    1
     6     3    34    1
     7     4     5    1
     8     4    35    1
     9     5     6    1
    10     5    38    1
    11     6    45    1
    12     8     7    1
    13     8     9    1
    14     8    30    1
    15     9    33    1
    16     9    10    1
    17    10    11    1
    18    11    12    1
    19    11    46    2
    20    12    13    1
    21    13    14    1
    22    14    15    1
    23    15    16    1
    24    16    17    1
    25    17    18    1
    26    18    19    1
    27    19    20    1
    28    20    21    1
    29    21    47    1
    30    21    22    1
    31    23    22    1
    32    23    28    1
    33    23    24    1
    34    24    25    1
    35    25    26    1
    36    25    52    1
    37    26    27    1
    38    26    53    1
    39    27    28    1
    40    27    54    1
    41    28    29    1
    42    30    29    1
    43    30    31    1
    44    31    32    1
    45    32    33    1
    46    32    55    1
    47    33    56    1
    48    35    36    1
    49    36    37    2
    50    39    38    1
    51    39    44    1
    52    39    40    1
    53    40    41    1
    54    41    42    1
    55    41    60    1
    56    42    43    1
    57    42    61    1
    58    43    44    1
    59    43    64    1
    60    44    65    1
    61    47    48    1
    62    48    49    1
    63    49    50    1
    64    50    51    1
    65    57    36    1
    66    57    66    1
    67    57    58    1
    68    58    59    1
    69    61    62    1
    70    62    63    2
    71    62    67    1
    72    67    68    1
    73    67    69    1
