@<TRIPOS>MOLECULE
IMPHY013733
 92 103 0 0 0
SMALL
GASTEIGER

@<TRIPOS>ATOM
      1 O           5.5042   -4.2026    0.0000 O.3     1  UNL1       -0.4666
      2 O           6.3496   -2.7994    0.0000 O.2     1  UNL1       -0.2487
      3 N           5.5668    1.0778    0.0000 N.pl3   1  UNL1       -0.3215
      4 N           4.2429    4.2866    0.0000 N.3     1  UNL1       -0.2979
      5 N           4.2659   -1.6622    0.0000 N.pl3   1  UNL1       -0.3037
      6 N           4.3623   -3.2902    0.0000 N.3     1  UNL1       -0.2931
      7 C           5.7760    2.0496    0.0000 C.3     1  UNL1        0.0492
      8 C           4.9100    2.5496    0.0000 C.3     1  UNL1        0.0363
      9 C           5.7760    4.0496    0.0000 C.3     1  UNL1       -0.0081
     10 C           4.9100    3.5496    0.0000 C.3     1  UNL1        0.0280
     11 C           5.4100    3.0496    0.0000 C.3     1  UNL1       -0.0144
     12 C           6.6421    2.5496    0.0000 C.3     1  UNL1       -0.0298
     13 C           6.6421    3.5496    0.0000 C.3     1  UNL1       -0.0436
     14 C           3.9382    2.7588    0.0000 C.3     1  UNL1       -0.0270
     15 C           4.1730    1.8825    0.0000 C.ar    1  UNL1       -0.0162
     16 C           5.9972    5.0160    0.0000 C.3     1  UNL1       -0.0444
     17 C           4.5781    0.9747    0.0000 C.ar    1  UNL1        0.0394
     18 C           3.5851    3.8145    0.0000 C.3     1  UNL1        0.0001
     19 C           4.5394   -0.7053    0.0000 C.3     1  UNL1        0.0891
     20 C           5.5401   -0.6721    0.0000 C.3     1  UNL1        0.0413
     21 C           6.0399    0.1954    0.0000 C.3     1  UNL1        0.0249
     22 C           4.4100    3.0496    0.0000 C.3     1  UNL1       -0.0599
     23 C           4.3240    5.2747    0.0000 C.3     1  UNL1       -0.0008
     24 C           3.9832    0.1272    0.0000 C.ar    1  UNL1       -0.0003
     25 C           5.2394    5.6554    0.0000 C.3     1  UNL1       -0.0396
     26 C           3.6452   -1.9425    0.0000 C.3     1  UNL1        0.0378
     27 C           6.5143   -1.8474    0.0000 C.3     1  UNL1       -0.0266
     28 C           3.1449    2.0057    0.0000 C.ar    1  UNL1       -0.0561
     29 C           5.8764   -1.6088    0.0000 C.ar    1  UNL1       -0.0162
     30 C           3.1024   -2.8062    0.0000 C.3     1  UNL1       -0.0262
     31 C           4.6272   -2.6162    0.0000 C.3     1  UNL1        0.1282
     32 C           5.0905   -2.2195    0.0000 C.ar    1  UNL1        0.0350
     33 C           5.8880   -3.2396    0.0000 C.3     1  UNL1        0.0005
     34 C           2.9525    0.2266    0.0000 C.ar    1  UNL1       -0.0547
     35 C           3.8013   -3.3475    0.0000 C.3     1  UNL1        0.0117
     36 C           2.5305    1.1722    0.0000 C.ar    1  UNL1       -0.0610
     37 C           4.6874   -4.2518    0.0000 C.3     1  UNL1        0.0207
     38 C           3.6775   -4.3550    0.0000 C.2     1  UNL1       -0.0543
     39 C           7.3463   -1.9860    0.0000 C.ar    1  UNL1       -0.0562
     40 C           5.0929   -3.7371    0.0000 C.ar    1  UNL1       -0.0403
     41 C           5.4355   -3.2050    0.0000 C.2     1  UNL1        0.3281
     42 C           7.6548   -3.4719    0.0000 C.ar    1  UNL1       -0.0614
     43 C           6.4565   -4.4030    0.0000 C.ar    1  UNL1       -0.0600
     44 C           2.9632   -5.0549    0.0000 C.2     1  UNL1       -0.0863
     45 C           2.0000   -4.7862    0.0000 C.3     1  UNL1       -0.0465
     46 C           6.0623   -5.0323    0.0000 C.3     1  UNL1        0.0817
     47 H           4.0729    3.6972    0.0000 H       1  UNL1        0.0477
     48 H           5.0549    3.5578    0.0000 H       1  UNL1        0.0325
     49 H           6.8541    1.9670    0.0000 H       1  UNL1        0.0286
     50 H           7.2526    2.6572    0.0000 H       1  UNL1        0.0286
     51 H           7.2526    3.4419    0.0000 H       1  UNL1        0.0272
     52 H           6.8541    4.1322    0.0000 H       1  UNL1        0.0272
     53 H           3.3247    2.6695    0.0000 H       1  UNL1        0.0287
     54 H           3.9173    2.1391    0.0000 H       1  UNL1        0.0287
     55 H           6.5721    4.7840    0.0000 H       1  UNL1        0.0272
     56 H           6.3171    5.5471    0.0000 H       1  UNL1        0.0272
     57 H           3.2757    4.3517    0.0000 H       1  UNL1        0.0427
     58 H           3.0197    3.5602    0.0000 H       1  UNL1        0.0427
     59 H           6.5109   -0.2078    0.0000 H       1  UNL1        0.0473
     60 H           6.5230    0.5840    0.0000 H       1  UNL1        0.0473
     61 H           4.4100    3.6696    0.0000 H       1  UNL1        0.0233
     62 H           3.7900    3.0496    0.0000 H       1  UNL1        0.0233
     63 H           4.4100    2.4296    0.0000 H       1  UNL1        0.0233
     64 H           4.1793    5.8776    0.0000 H       1  UNL1        0.0427
     65 H           3.7058    5.2271    0.0000 H       1  UNL1        0.0427
     66 H           5.7091    6.0601    0.0000 H       1  UNL1        0.0278
     67 H           4.9139    6.1831    0.0000 H       1  UNL1        0.0278
     68 H           2.7971   -1.8844    0.0000 H       1  UNL1        0.0488
     69 H           7.0347   -2.1844    0.0000 H       1  UNL1        0.0287
     70 H           6.9263   -1.3840    0.0000 H       1  UNL1        0.0287
     71 H           2.8988    2.5748    0.0000 H       1  UNL1        0.0621
     72 H           2.5884   -2.4594    0.0000 H       1  UNL1        0.0288
     73 H           2.7390   -3.3086    0.0000 H       1  UNL1        0.0288
     74 H           4.6928   -1.9997    0.0000 H       1  UNL1        0.0622
     75 H           5.8145   -3.8552    0.0000 H       1  UNL1        0.0427
     76 H           6.4854   -3.4054    0.0000 H       1  UNL1        0.0427
     77 H           2.5905   -0.2767    0.0000 H       1  UNL1        0.0622
     78 H           3.1649   -3.9110    0.0000 H       1  UNL1        0.0370
     79 H           1.9141    1.2388    0.0000 H       1  UNL1        0.0618
     80 H           4.7963   -4.8622    0.0000 H       1  UNL1        0.0473
     81 H           5.2879   -4.0977    0.0000 H       1  UNL1        0.0473
     82 H           7.7948   -1.5579    0.0000 H       1  UNL1        0.0621
     83 H           4.5673   -4.0659    0.0000 H       1  UNL1        0.0636
     84 H           8.2366   -3.6861    0.0000 H       1  UNL1        0.0618
     85 H           6.5204   -5.0197    0.0000 H       1  UNL1        0.0618
     86 H           3.1176   -5.6554    0.0000 H       1  UNL1        0.0569
     87 H           2.1666   -4.1890    0.0000 H       1  UNL1        0.0272
     88 H           1.4028   -4.6197    0.0000 H       1  UNL1        0.0272
     89 H           1.8334   -5.3835    0.0000 H       1  UNL1        0.0272
     90 H           5.5478   -5.3784    0.0000 H       1  UNL1        0.0661
     91 H           6.4083   -5.5468    0.0000 H       1  UNL1        0.0661
     92 H           6.5767   -4.6863    0.0000 H       1  UNL1        0.0661
@<TRIPOS>BOND
     1     1    41    1
     2     1    46    1
     3     2    41    2
     4     7     3    1
     5     3    17    1
     6     3    21    1
     7     4    10    1
     8     4    18    1
     9     4    23    1
    10     5    19    1
    11     5    31    1
    12     5    32    1
    13     6    26    1
    14     6    33    1
    15     6    37    1
    16     7     8    1
    17     7    11    1
    18     7    12    1
    19     8    10    1
    20     8    14    1
    21     8    15    1
    22     9    10    1
    23     9    11    1
    24     9    13    1
    25     9    16    1
    26    10    47    1
    27    11    22    1
    28    11    48    1
    29    12    13    1
    30    12    49    1
    31    12    50    1
    32    13    51    1
    33    13    52    1
    34    14    18    1
    35    14    53    1
    36    14    54    1
    37    15    17   ar
    38    15    28   ar
    39    16    25    1
    40    16    55    1
    41    16    56    1
    42    17    24   ar
    43    18    57    1
    44    18    58    1
    45    19    20    1
    46    19    24    1
    47    19    26    1
    48    20    21    1
    49    20    27    1
    50    20    29    1
    51    21    59    1
    52    21    60    1
    53    22    61    1
    54    22    62    1
    55    22    63    1
    56    23    25    1
    57    23    64    1
    58    23    65    1
    59    24    34   ar
    60    25    66    1
    61    25    67    1
    62    26    30    1
    63    26    68    1
    64    27    33    1
    65    27    69    1
    66    27    70    1
    67    28    36   ar
    68    28    71    1
    69    29    32   ar
    70    29    39   ar
    71    30    35    1
    72    30    72    1
    73    30    73    1
    74    31    35    1
    75    31    41    1
    76    31    74    1
    77    32    40   ar
    78    33    75    1
    79    33    76    1
    80    34    36   ar
    81    34    77    1
    82    35    38    1
    83    35    78    1
    84    36    79    1
    85    37    38    1
    86    37    80    1
    87    37    81    1
    88    38    44    2
    89    39    42   ar
    90    39    82    1
    91    40    43   ar
    92    40    83    1
    93    42    43   ar
    94    42    84    1
    95    43    85    1
    96    44    45    1
    97    44    86    1
    98    45    87    1
    99    45    88    1
   100    45    89    1
   101    46    90    1
   102    46    91    1
   103    46    92    1
