@<TRIPOS>MOLECULE
IMPHY010716
 49 55 0 0 0
SMALL
GASTEIGER

@<TRIPOS>ATOM
      1 C           7.5103   -9.5031    0.0000 C.3     1  UNL1        0.2323
      2 C           6.3445  -10.1810    0.0000 C.3     1  UNL1        0.2848
      3 C           7.5103   -8.1746    0.0000 C.ar    1  UNL1        0.0861
      4 C           6.3309  -11.5231    0.0000 C.2     1  UNL1        0.0817
      5 C           8.6626  -10.1810    0.0000 C.2     1  UNL1        0.1876
      6 C           6.3580   -7.5103    0.0000 C.ar    1  UNL1        0.1442
      7 C           6.3716   -6.1682    0.0000 C.ar    1  UNL1        0.0694
      8 C           8.6626  -11.5366    0.0000 C.2     1  UNL1        0.2096
      9 C           7.5239   -5.5175    0.0000 C.ar    1  UNL1        0.1757
     10 O           6.0056   -8.7982    0.0000 O.3     1  UNL1       -0.4518
     11 C           7.4832  -12.1873    0.0000 C.2     1  UNL1        0.2335
     12 C           8.6626   -7.5103    0.0000 C.ar    1  UNL1        0.1771
     13 O           5.1922   -9.5031    0.0000 O.3     1  UNL1       -0.3237
     14 C           8.6626   -6.1818    0.0000 C.ar    1  UNL1        0.2058
     15 O           7.5239   -4.1754    0.0000 O.3     1  UNL1       -0.4792
     16 C           5.2057   -5.5175    0.0000 C.3     1  UNL1        0.1025
     17 C           5.1786  -12.1873    0.0000 C.2     1  UNL1       -0.0187
     18 C           6.3580   -3.4976    0.0000 C.3     1  UNL1        0.1363
     19 C           5.2057   -4.1754    0.0000 C.3     1  UNL1        0.0679
     20 C           4.0263  -10.1539    0.0000 C.3     1  UNL1        0.1010
     21 O           7.1579  -10.8046    0.0000 O.3     1  UNL1       -0.3386
     22 O           7.4832  -13.5294    0.0000 O.2     1  UNL1       -0.2834
     23 C           4.0263  -11.4960    0.0000 C.3     1  UNL1        0.0535
     24 O           9.8285   -9.5031    0.0000 O.2     1  UNL1       -0.4696
     25 O           9.8149  -12.2145    0.0000 O.2     1  UNL1       -0.4654
     26 C           7.0223   -2.3317    0.0000 C.ar    1  UNL1        0.0100
     27 C           2.6842  -10.1539    0.0000 C.ar    1  UNL1       -0.0012
     28 O           9.8285   -8.1746    0.0000 O.3     1  UNL1       -0.4684
     29 O           9.8285   -5.5175    0.0000 O.3     1  UNL1       -0.4654
     30 O           4.0263   -4.8532    0.0000 O.3     1  UNL1       -0.3553
     31 C           6.3445   -1.1930    0.0000 C.ar    1  UNL1       -0.0013
     32 C           8.3644   -2.3182    0.0000 C.ar    1  UNL1       -0.0013
     33 C           2.0199  -11.3197    0.0000 C.ar    1  UNL1       -0.0023
     34 C           2.0199   -8.9880    0.0000 C.ar    1  UNL1       -0.0023
     35 C           7.4832  -11.4417    0.0000 C.3     1  UNL1        0.1752
     36 C          10.9808  -10.1945    0.0000 C.3     1  UNL1        0.2523
     37 C           9.8014  -13.5566    0.0000 C.3     1  UNL1        0.2528
     38 C          10.9808   -7.4968    0.0000 C.3     1  UNL1        0.2526
     39 C          10.9808   -6.1818    0.0000 C.3     1  UNL1        0.2528
     40 C           4.0263   -3.5111    0.0000 C.3     1  UNL1        0.1739
     41 C           0.6778   -8.9744    0.0000 C.ar    1  UNL1       -0.0003
     42 C           0.6778  -11.3197    0.0000 C.ar    1  UNL1       -0.0003
     43 C           9.0151   -1.1523    0.0000 C.ar    1  UNL1       -0.0002
     44 C           6.9952   -0.0271    0.0000 C.ar    1  UNL1       -0.0002
     45 C           0.0000  -10.1539    0.0000 C.ar    1  UNL1       -0.0000
     46 C           8.3373    0.0000    0.0000 C.ar    1  UNL1       -0.0000
     47 H           4.5279   -6.6834    0.0000 H       1  UNL1        0.0656
     48 H           5.4091   -2.5486    0.0000 H       1  UNL1        0.0792
     49 H           3.6874   -8.8524    0.0000 H       1  UNL1        0.0658
@<TRIPOS>BOND
     1     1     2    1
     2     1     3    1
     3     1     5    1
     4     1    21    1
     5     2     4    1
     6     2    10    1
     7     2    13    1
     8     3     6   ar
     9     3    12   ar
    10     4    17    2
    11     4    11    1
    12     5     8    2
    13     5    24    1
    14     6     7   ar
    15     6    10    1
    16     7    16    1
    17     7     9   ar
    18     8    11    1
    19     8    25    1
    20     9    14   ar
    21     9    15    1
    22    11    22    2
    23    12    14   ar
    24    12    28    1
    25    13    20    1
    26    14    29    1
    27    15    18    1
    28    16    19    1
    29    16    30    1
    30    16    47    1
    31    17    23    1
    32    18    26    1
    33    18    48    1
    34    18    19    1
    35    20    23    1
    36    20    27    1
    37    20    49    1
    38    21    35    1
    39    24    36    1
    40    25    37    1
    41    26    31   ar
    42    26    32   ar
    43    27    33   ar
    44    27    34   ar
    45    28    38    1
    46    29    39    1
    47    30    40    1
    48    31    44   ar
    49    32    43   ar
    50    33    42   ar
    51    34    41   ar
    52    41    45   ar
    53    42    45   ar
    54    43    46   ar
    55    44    46   ar
