@<TRIPOS>MOLECULE
IMPHY011258
 84 88 0 0 0
SMALL
GASTEIGER

@<TRIPOS>ATOM
      1 O           5.7726   -2.9697    0.0000 O.3     1  UNL1       -0.3910
      2 O          11.1246    3.2439    0.0000 O.3     1  UNL1       -0.3912
      3 O           3.2914   -2.7672    0.0000 O.3     1  UNL1       -0.3910
      4 O           4.5096   -3.3859    0.0000 O.3     1  UNL1       -0.3943
      5 C           7.5167    0.0995    0.0000 C.3     1  UNL1       -0.0193
      6 C           7.5167    1.0995    0.0000 C.3     1  UNL1       -0.0257
      7 C           8.4106    1.6342    0.0000 C.3     1  UNL1       -0.0250
      8 C           6.6507   -0.4005    0.0000 C.3     1  UNL1       -0.0028
      9 C           9.3167    1.1204    0.0000 C.3     1  UNL1       -0.0278
     10 C           8.4106   -0.4351    0.0000 C.3     1  UNL1       -0.0463
     11 C           5.7847    0.0995    0.0000 C.2     1  UNL1       -0.0631
     12 C           4.8746   -0.4073    0.0000 C.3     1  UNL1       -0.0064
     13 C           4.8666   -1.4489    0.0000 C.3     1  UNL1        0.0521
     14 C           9.3167    0.0787    0.0000 C.3     1  UNL1       -0.0486
     15 C           6.6667   -1.4420    0.0000 C.3     1  UNL1       -0.0165
     16 C          10.2605    1.6556    0.0000 C.3     1  UNL1       -0.0056
     17 C           6.6507    1.5995    0.0000 C.3     1  UNL1       -0.0306
     18 C           8.3856    2.7189    0.0000 C.3     1  UNL1       -0.0447
     19 C           5.7687   -1.9697    0.0000 C.3     1  UNL1        0.0667
     20 C           7.8588   -0.8401    0.0000 C.3     1  UNL1       -0.0585
     21 C           5.7847    1.0995    0.0000 C.2     1  UNL1       -0.0836
     22 C          10.2605    2.7406    0.0000 C.3     1  UNL1        0.0606
     23 C           7.5408    2.1275    0.0000 C.3     1  UNL1       -0.0590
     24 C           7.2935   -1.1665    0.0000 C.3     1  UNL1       -0.0552
     25 C           3.9478    0.1568    0.0000 C.3     1  UNL1       -0.0405
     26 C           3.9312   -1.9986    0.0000 C.3     1  UNL1        0.0663
     27 C           9.3167    3.2758    0.0000 C.3     1  UNL1       -0.0258
     28 C           2.9999   -0.3712    0.0000 C.3     1  UNL1       -0.0320
     29 C           2.9916   -1.4561    0.0000 C.3     1  UNL1       -0.0210
     30 C           4.8589   -2.4489    0.0000 C.3     1  UNL1        0.0551
     31 C          11.2605    1.6517    0.0000 C.3     1  UNL1       -0.0572
     32 C          10.7572    0.7876    0.0000 C.3     1  UNL1       -0.0572
     33 C           2.0000   -0.3596    0.0000 C.3     1  UNL1       -0.0597
     34 C           2.5100    0.5006    0.0000 C.3     1  UNL1       -0.0597
     35 H           8.2561    0.6802    0.0000 H       1  UNL1        0.0315
     36 H          10.0512    0.6925    0.0000 H       1  UNL1        0.0312
     37 H           8.0060   -0.9049    0.0000 H       1  UNL1        0.0271
     38 H           8.8043   -0.9141    0.0000 H       1  UNL1        0.0271
     39 H           4.8910    0.4425    0.0000 H       1  UNL1        0.0354
     40 H           9.5258   -0.5050    0.0000 H       1  UNL1        0.0268
     41 H           9.9276    0.1848    0.0000 H       1  UNL1        0.0268
     42 H           6.8848   -2.0224    0.0000 H       1  UNL1        0.0299
     43 H           7.2759   -1.3265    0.0000 H       1  UNL1        0.0299
     44 H           7.0492    2.0745    0.0000 H       1  UNL1        0.0310
     45 H           6.2522    2.0745    0.0000 H       1  UNL1        0.0310
     46 H           8.1631    3.2976    0.0000 H       1  UNL1        0.0271
     47 H           7.7773    2.5987    0.0000 H       1  UNL1        0.0271
     48 H           6.3074   -2.2766    0.0000 H       1  UNL1        0.0601
     49 H           7.2762   -1.0522    0.0000 H       1  UNL1        0.0235
     50 H           8.0709   -1.4227    0.0000 H       1  UNL1        0.0235
     51 H           8.4414   -0.6280    0.0000 H       1  UNL1        0.0235
     52 H           5.2477    1.4095    0.0000 H       1  UNL1        0.0572
     53 H          10.7980    2.4316    0.0000 H       1  UNL1        0.0599
     54 H           4.3560    0.6234    0.0000 H       1  UNL1        0.0276
     55 H           3.5579    0.6388    0.0000 H       1  UNL1        0.0276
     56 H           7.8466    2.6668    0.0000 H       1  UNL1        0.0235
     57 H           7.0015    2.4334    0.0000 H       1  UNL1        0.0235
     58 H           7.2349    1.5882    0.0000 H       1  UNL1        0.0235
     59 H           6.8185   -1.5650    0.0000 H       1  UNL1        0.0238
     60 H           7.6920   -1.6415    0.0000 H       1  UNL1        0.0238
     61 H           7.7684   -0.7680    0.0000 H       1  UNL1        0.0238
     62 H           4.3325   -2.4713    0.0000 H       1  UNL1        0.0601
     63 H           9.7103    3.7548    0.0000 H       1  UNL1        0.0290
     64 H           8.9121    3.7456    0.0000 H       1  UNL1        0.0290
     65 H           2.3816   -1.3453    0.0000 H       1  UNL1        0.0295
     66 H           2.7780   -2.0382    0.0000 H       1  UNL1        0.0295
     67 H           5.3066   -2.8778    0.0000 H       1  UNL1        0.0564
     68 H           4.2492   -2.3365    0.0000 H       1  UNL1        0.0564
     69 H          11.2581    1.0317    0.0000 H       1  UNL1        0.0236
     70 H          11.8805    1.6493    0.0000 H       1  UNL1        0.0236
     71 H          11.2629    2.2717    0.0000 H       1  UNL1        0.0236
     72 H          10.2190    0.4797    0.0000 H       1  UNL1        0.0236
     73 H          11.0651    0.2495    0.0000 H       1  UNL1        0.0236
     74 H          11.2953    1.0956    0.0000 H       1  UNL1        0.0236
     75 H           6.3107   -3.2776    0.0000 H       1  UNL1        0.2098
     76 H           2.0072    0.2603    0.0000 H       1  UNL1        0.0235
     77 H           3.0505    0.8043    0.0000 H       1  UNL1        0.0235
     78 H           2.2062    1.0411    0.0000 H       1  UNL1        0.0235
     79 H           1.9695    0.1968    0.0000 H       1  UNL1        0.0235
     80 H           1.3800   -0.3524    0.0000 H       1  UNL1        0.0235
     81 H           1.9928   -0.9796    0.0000 H       1  UNL1        0.0235
     82 H          11.1222    3.8639    0.0000 H       1  UNL1        0.2098
     83 H           2.6804   -2.6619    0.0000 H       1  UNL1        0.2098
     84 H           4.9045   -3.8639    0.0000 H       1  UNL1        0.2094
@<TRIPOS>BOND
     1    19     1    1
     2     1    75    1
     3    22     2    1
     4     2    82    1
     5    26     3    1
     6     3    83    1
     7     4    30    1
     8     4    84    1
     9     5     6    1
    10     5     8    1
    11     5    10    1
    12     5    20    1
    13     6     7    1
    14     6    17    1
    15     6    35    1
    16     7     9    1
    17     7    18    1
    18     7    23    1
    19     8    11    1
    20     8    15    1
    21     8    24    1
    22     9    14    1
    23     9    16    1
    24     9    36    1
    25    10    14    1
    26    10    37    1
    27    10    38    1
    28    11    12    1
    29    11    21    2
    30    12    13    1
    31    12    25    1
    32    12    39    1
    33    13    19    1
    34    13    26    1
    35    13    30    1
    36    14    40    1
    37    14    41    1
    38    15    19    1
    39    15    42    1
    40    15    43    1
    41    16    22    1
    42    16    31    1
    43    16    32    1
    44    17    21    1
    45    17    44    1
    46    17    45    1
    47    18    27    1
    48    18    46    1
    49    18    47    1
    50    19    48    1
    51    20    49    1
    52    20    50    1
    53    20    51    1
    54    21    52    1
    55    22    27    1
    56    22    53    1
    57    23    56    1
    58    23    57    1
    59    23    58    1
    60    24    59    1
    61    24    60    1
    62    24    61    1
    63    25    28    1
    64    25    54    1
    65    25    55    1
    66    26    29    1
    67    26    62    1
    68    27    63    1
    69    27    64    1
    70    28    29    1
    71    28    33    1
    72    28    34    1
    73    29    65    1
    74    29    66    1
    75    30    67    1
    76    30    68    1
    77    31    69    1
    78    31    70    1
    79    31    71    1
    80    32    72    1
    81    32    73    1
    82    32    74    1
    83    33    76    1
    84    33    80    1
    85    33    81    1
    86    34    77    1
    87    34    78    1
    88    34    79    1
