@<TRIPOS>MOLECULE
IMPHY001484
 87 92 0 0 0
SMALL
GASTEIGER

@<TRIPOS>ATOM
      1 O           4.2690    1.9970    0.0000 O.3     1  UNL1       -0.4487
      2 O           4.2690    3.9970    0.0000 O.3     1  UNL1       -0.4914
      3 O           9.4932   -1.9972    0.0000 O.3     1  UNL1       -0.4914
      4 O           9.5163   -3.9971    0.0000 O.3     1  UNL1       -0.4914
      5 O           2.5369    0.9970    0.0000 O.3     1  UNL1       -0.5033
      6 O          11.1902   -1.0775    0.0000 O.3     1  UNL1       -0.5068
      7 N           5.1010   -2.5272    0.0000 N.3     1  UNL1       -0.2978
      8 N           8.6671    2.4762    0.0000 N.3     1  UNL1       -0.2978
      9 C           6.0010   -2.0030    0.0000 C.3     1  UNL1        0.0397
     10 C           7.7610    1.9624    0.0000 C.3     1  UNL1        0.0397
     11 C           6.8671    2.4970    0.0000 C.ar    1  UNL1       -0.0231
     12 C           6.9011   -2.5272    0.0000 C.ar    1  UNL1       -0.0231
     13 C           5.1130   -3.5688    0.0000 C.3     1  UNL1        0.0032
     14 C           8.6671    3.5178    0.0000 C.3     1  UNL1        0.0032
     15 C           7.7610    4.0317    0.0000 C.3     1  UNL1       -0.0144
     16 C           6.0250   -4.0721    0.0000 C.3     1  UNL1       -0.0144
     17 C           6.8671    3.4970    0.0000 C.ar    1  UNL1       -0.0378
     18 C           6.0010   -1.0030    0.0000 C.3     1  UNL1       -0.0078
     19 C           6.9127   -3.5272    0.0000 C.ar    1  UNL1       -0.0378
     20 C           7.7494    0.9624    0.0000 C.3     1  UNL1       -0.0079
     21 C           6.0010    1.9970    0.0000 C.ar    1  UNL1       -0.0107
     22 C           5.1350   -0.5030    0.0000 C.ar    1  UNL1       -0.0419
     23 C           7.7613   -2.0173    0.0000 C.ar    1  UNL1       -0.0114
     24 C           4.2311   -2.0339    0.0000 C.3     1  UNL1       -0.0122
     25 C           9.5312    1.9729    0.0000 C.3     1  UNL1       -0.0122
     26 C           6.0010    3.9970    0.0000 C.ar    1  UNL1       -0.0128
     27 C           7.7844   -4.0171    0.0000 C.ar    1  UNL1       -0.0128
     28 C           8.6096    0.4525    0.0000 C.ar    1  UNL1       -0.0453
     29 C           5.1350    2.4970    0.0000 C.ar    1  UNL1        0.1703
     30 C           5.1350    3.4970    0.0000 C.ar    1  UNL1        0.1624
     31 C           8.6330   -2.5072    0.0000 C.ar    1  UNL1        0.1618
     32 C           8.6446   -3.5072    0.0000 C.ar    1  UNL1        0.1618
     33 C           5.1350    0.4970    0.0000 C.ar    1  UNL1       -0.0124
     34 C           4.2690   -1.0030    0.0000 C.ar    1  UNL1       -0.0548
     35 C           4.2690    0.9970    0.0000 C.ar    1  UNL1        0.1700
     36 C           8.5981   -0.5475    0.0000 C.ar    1  UNL1       -0.0551
     37 C           9.4814    0.9424    0.0000 C.ar    1  UNL1       -0.0551
     38 C           3.4030    0.4970    0.0000 C.ar    1  UNL1        0.1591
     39 C           3.4030   -0.5030    0.0000 C.ar    1  UNL1       -0.0162
     40 C           9.4582   -1.0574    0.0000 C.ar    1  UNL1       -0.0199
     41 C          10.3416    0.4324    0.0000 C.ar    1  UNL1       -0.0199
     42 C          10.3300   -0.5675    0.0000 C.ar    1  UNL1        0.1169
     43 C           4.2690    4.9970    0.0000 C.3     1  UNL1        0.0790
     44 C          10.3650   -2.4872    0.0000 C.3     1  UNL1        0.0790
     45 C           9.5279   -4.9970    0.0000 C.3     1  UNL1        0.0790
     46 H           5.4635   -1.6940    0.0000 H       1  UNL1        0.0515
     47 H           8.2949    1.6472    0.0000 H       1  UNL1        0.0515
     48 H           4.5010   -3.4698    0.0000 H       1  UNL1        0.0430
     49 H           4.9107   -4.1549    0.0000 H       1  UNL1        0.0430
     50 H           9.2779    3.4118    0.0000 H       1  UNL1        0.0430
     51 H           8.8761    4.1015    0.0000 H       1  UNL1        0.0430
     52 H           8.1546    4.5107    0.0000 H       1  UNL1        0.0326
     53 H           7.3564    4.5015    0.0000 H       1  UNL1        0.0326
     54 H           5.6369   -4.5557    0.0000 H       1  UNL1        0.0326
     55 H           6.4350   -4.5372    0.0000 H       1  UNL1        0.0326
     56 H           6.6116   -1.1106    0.0000 H       1  UNL1        0.0332
     57 H           6.2131   -0.4204    0.0000 H       1  UNL1        0.0332
     58 H           7.1402    1.0772    0.0000 H       1  UNL1        0.0332
     59 H           7.5307    0.3823    0.0000 H       1  UNL1        0.0332
     60 H           6.0010    1.3770    0.0000 H       1  UNL1        0.0659
     61 H           7.7541   -1.3973    0.0000 H       1  UNL1        0.0659
     62 H           4.5370   -1.4946    0.0000 H       1  UNL1        0.0391
     63 H           3.6918   -1.7281    0.0000 H       1  UNL1        0.0391
     64 H           3.9253   -2.5732    0.0000 H       1  UNL1        0.0391
     65 H           9.2191    1.4372    0.0000 H       1  UNL1        0.0391
     66 H          10.0669    1.6608    0.0000 H       1  UNL1        0.0391
     67 H           9.8432    2.5086    0.0000 H       1  UNL1        0.0391
     68 H           6.0010    4.6170    0.0000 H       1  UNL1        0.0658
     69 H           7.7916   -4.6371    0.0000 H       1  UNL1        0.0658
     70 H           5.6720    0.8070    0.0000 H       1  UNL1        0.0658
     71 H           4.2690   -1.6230    0.0000 H       1  UNL1        0.0621
     72 H           8.0576   -0.8512    0.0000 H       1  UNL1        0.0621
     73 H           9.4886    1.5624    0.0000 H       1  UNL1        0.0621
     74 H           2.8660   -0.8130    0.0000 H       1  UNL1        0.0655
     75 H           9.4511   -1.6774    0.0000 H       1  UNL1        0.0654
     76 H          10.8820    0.7362    0.0000 H       1  UNL1        0.0654
     77 H           4.8890    4.9970    0.0000 H       1  UNL1        0.0660
     78 H           4.2690    5.6170    0.0000 H       1  UNL1        0.0660
     79 H           3.6490    4.9970    0.0000 H       1  UNL1        0.0660
     80 H          10.0612   -3.0277    0.0000 H       1  UNL1        0.0660
     81 H          10.9055   -2.7910    0.0000 H       1  UNL1        0.0660
     82 H          10.6687   -1.9467    0.0000 H       1  UNL1        0.0660
     83 H           8.9080   -5.0042    0.0000 H       1  UNL1        0.0660
     84 H           9.5351   -5.6170    0.0000 H       1  UNL1        0.0660
     85 H          10.1479   -4.9899    0.0000 H       1  UNL1        0.0660
     86 H           2.0000    0.6870    0.0000 H       1  UNL1        0.2923
     87 H          11.7307   -0.7737    0.0000 H       1  UNL1        0.2921
@<TRIPOS>BOND
     1     1    29    1
     2     1    35    1
     3     2    30    1
     4     2    43    1
     5     3    31    1
     6     3    44    1
     7     4    32    1
     8     4    45    1
     9     5    38    1
    10     5    86    1
    11     6    42    1
    12     6    87    1
    13     7     9    1
    14     7    13    1
    15     7    24    1
    16     8    10    1
    17     8    14    1
    18     8    25    1
    19     9    12    1
    20     9    18    1
    21     9    46    1
    22    10    11    1
    23    10    20    1
    24    10    47    1
    25    11    17   ar
    26    11    21   ar
    27    12    19   ar
    28    12    23   ar
    29    13    16    1
    30    13    48    1
    31    13    49    1
    32    14    15    1
    33    14    50    1
    34    14    51    1
    35    15    17    1
    36    15    52    1
    37    15    53    1
    38    16    19    1
    39    16    54    1
    40    16    55    1
    41    17    26   ar
    42    18    22    1
    43    18    56    1
    44    18    57    1
    45    19    27   ar
    46    20    28    1
    47    20    58    1
    48    20    59    1
    49    21    29   ar
    50    21    60    1
    51    22    33   ar
    52    22    34   ar
    53    23    31   ar
    54    23    61    1
    55    24    62    1
    56    24    63    1
    57    24    64    1
    58    25    65    1
    59    25    66    1
    60    25    67    1
    61    26    30   ar
    62    26    68    1
    63    27    32   ar
    64    27    69    1
    65    28    36   ar
    66    28    37   ar
    67    29    30   ar
    68    31    32   ar
    69    33    35   ar
    70    33    70    1
    71    34    39   ar
    72    34    71    1
    73    35    38   ar
    74    36    40   ar
    75    36    72    1
    76    37    41   ar
    77    37    73    1
    78    38    39   ar
    79    39    74    1
    80    40    42   ar
    81    40    75    1
    82    41    42   ar
    83    41    76    1
    84    43    77    1
    85    43    78    1
    86    43    79    1
    87    44    80    1
    88    44    81    1
    89    44    82    1
    90    45    83    1
    91    45    84    1
    92    45    85    1
