@<TRIPOS>MOLECULE
IMPHY006362
 20 20 0 0 0
SMALL
GASTEIGER

@<TRIPOS>ATOM
      1 O           5.0298   -0.5357    0.0000 O.3     1  UNL1       -0.4450
      2 O           3.3548    1.5521    0.0000 O.3     1  UNL1       -0.3854
      3 O           2.4608   -0.2266    0.0000 O.2     1  UNL1       -0.5042
      4 O           5.0868    2.5521    0.0000 O.3     1  UNL1       -0.3923
      5 O           3.1330   -2.2957    0.0000 O.2     1  UNL1       -0.4988
      6 O           5.3086   -2.2957    0.0000 O.2     1  UNL1       -0.2414
      7 C           4.2208    0.0521    0.0000 C.3     1  UNL1        0.1912
      8 C           4.2208    1.0521    0.0000 C.3     1  UNL1        0.1222
      9 C           3.4118   -0.5357    0.0000 C.2     1  UNL1        0.1863
     10 C           5.0868    1.5521    0.0000 C.3     1  UNL1        0.0741
     11 C           3.7208   -1.4867    0.0000 C.2     1  UNL1        0.2437
     12 C           4.7208   -1.4867    0.0000 C.2     1  UNL1        0.3783
     13 H           4.9782    0.4380    0.0000 H       1  UNL1        0.0845
     14 H           4.2208    1.6721    0.0000 H       1  UNL1        0.0658
     15 H           5.2989    0.9695    0.0000 H       1  UNL1        0.0584
     16 H           5.6974    1.6598    0.0000 H       1  UNL1        0.0584
     17 H           3.3548    2.1721    0.0000 H       1  UNL1        0.2101
     18 H           2.0000   -0.6415    0.0000 H       1  UNL1        0.2920
     19 H           5.6238    2.8621    0.0000 H       1  UNL1        0.2095
     20 H           3.3852   -2.8621    0.0000 H       1  UNL1        0.2925
@<TRIPOS>BOND
     1     1     7    1
     2     1    12    1
     3     8     2    1
     4     2    17    1
     5     3     9    1
     6     3    18    1
     7     4    10    1
     8     4    19    1
     9     5    11    1
    10     5    20    1
    11     6    12    2
    12     7     8    1
    13     7     9    1
    14     7    13    1
    15     8    10    1
    16     8    14    1
    17     9    11    2
    18    10    15    1
    19    10    16    1
    20    11    12    1
