@<TRIPOS>MOLECULE
IMPHY000502
 23 26 0 0 0
SMALL
GASTEIGER

@<TRIPOS>ATOM
      1 C        2468.0400 2480.0000    0.0000 C.3     1  UNL1        0.1452
      2 O        2502.6800 2460.0500    0.0000 O.3     1  UNL1       -0.3489
      3 C        2537.2200 2480.0000    0.0000 C.3     1  UNL1        0.1686
      4 C        2537.2200 2520.0000    0.0000 C.ar    1  UNL1        0.0073
      5 C        2571.8600 2539.9500    0.0000 C.ar    1  UNL1       -0.0019
      6 C        2571.8600 2580.0500    0.0000 C.ar    1  UNL1       -0.0002
      7 C        2537.2200 2600.0000    0.0000 C.ar    1  UNL1       -0.0000
      8 C        2502.5800 2580.0500    0.0000 C.ar    1  UNL1       -0.0002
      9 C        2502.5800 2540.0500    0.0000 C.ar    1  UNL1       -0.0019
     10 C        2433.4000 2460.0500    0.0000 C.3     1  UNL1        0.0641
     11 C        2393.4000 2460.0500    0.0000 C.3     1  UNL1        0.1448
     12 C        2393.4000 2420.0500    0.0000 C.3     1  UNL1        0.1448
     13 C        2433.4000 2420.0500    0.0000 C.3     1  UNL1        0.0641
     14 C        2468.0400 2400.0000    0.0000 C.3     1  UNL1        0.1452
     15 O        2502.6800 2420.0500    0.0000 O.3     1  UNL1       -0.3489
     16 C        2537.3200 2400.0000    0.0000 C.3     1  UNL1        0.1686
     17 C        2571.9600 2420.0500    0.0000 C.ar    1  UNL1        0.0073
     18 C        2571.9600 2460.0500    0.0000 C.ar    1  UNL1       -0.0019
     19 C        2606.6000 2480.0000    0.0000 C.ar    1  UNL1       -0.0002
     20 C        2641.2400 2460.0500    0.0000 C.ar    1  UNL1       -0.0000
     21 C        2641.2400 2420.0500    0.0000 C.ar    1  UNL1       -0.0002
     22 C        2606.6000 2400.0000    0.0000 C.ar    1  UNL1       -0.0019
     23 O        2358.7600 2440.3000    0.0000 O.3     1  UNL1       -0.3536
@<TRIPOS>BOND
     1     1     2    1
     2     2     3    1
     3     3     4    1
     4     4     5   ar
     5     4     9   ar
     6     5     6   ar
     7     6     7   ar
     8     8     7   ar
     9     9     8   ar
    10    10     1    1
    11    10    11    1
    12    10    13    1
    13    11    12    1
    14    11    23    1
    15    12    23    1
    16    13    12    1
    17    13    14    1
    18    14    15    1
    19    15    16    1
    20    16    17    1
    21    17    18   ar
    22    17    22   ar
    23    18    19   ar
    24    19    20   ar
    25    21    20   ar
    26    22    21   ar
