@<TRIPOS>MOLECULE
IMPHY007753
 43 46 0 0 0
SMALL
GASTEIGER

@<TRIPOS>ATOM
      1 O           2.5578   -0.6033    0.0000 O.3     1  UNL1       -0.3905
      2 O           2.5381   -3.6515    0.0000 O.3     1  UNL1       -0.3943
      3 O           4.3159    3.4628    0.0000 O.3     1  UNL1       -0.4914
      4 O           2.5420    2.4387    0.0000 O.3     1  UNL1       -0.5033
      5 N           6.0600   -0.6064    0.0000 N.3     1  UNL1       -0.2906
      6 C           5.1940   -1.1064    0.0000 C.3     1  UNL1        0.0412
      7 C           4.3280   -0.6064    0.0000 C.3     1  UNL1        0.0305
      8 C           5.2100   -2.1479    0.0000 C.2     1  UNL1       -0.0542
      9 C           3.4180   -1.1133    0.0000 C.3     1  UNL1        0.0721
     10 C           3.4099   -2.1549    0.0000 C.3     1  UNL1        0.0272
     11 C           6.6779   -1.3848    0.0000 C.3     1  UNL1        0.0035
     12 C           6.1981   -2.2551    0.0000 C.3     1  UNL1       -0.0174
     13 C           4.3280    0.3936    0.0000 C.ar    1  UNL1       -0.0319
     14 C           6.0600    0.3936    0.0000 C.3     1  UNL1        0.0250
     15 C           4.3120   -2.6757    0.0000 C.2     1  UNL1       -0.0755
     16 C           5.1940    0.8936    0.0000 C.ar    1  UNL1       -0.0261
     17 C           2.5420   -2.6516    0.0000 C.3     1  UNL1        0.0528
     18 C           3.4180    0.9004    0.0000 C.ar    1  UNL1       -0.0126
     19 C           5.2100    1.9351    0.0000 C.ar    1  UNL1       -0.0116
     20 C           3.4099    1.9420    0.0000 C.ar    1  UNL1        0.1587
     21 C           4.3120    2.4628    0.0000 C.ar    1  UNL1        0.1616
     22 C           5.1838    3.9595    0.0000 C.3     1  UNL1        0.0790
     23 H           4.4579   -1.5314    0.0000 H       1  UNL1        0.0516
     24 H           5.0641   -0.1814    0.0000 H       1  UNL1        0.0393
     25 H           2.8781   -1.4181    0.0000 H       1  UNL1        0.0606
     26 H           3.4087   -2.7749    0.0000 H       1  UNL1        0.0391
     27 H           7.1768   -1.7530    0.0000 H       1  UNL1        0.0430
     28 H           7.1086   -0.9388    0.0000 H       1  UNL1        0.0430
     29 H           6.0507   -2.8573    0.0000 H       1  UNL1        0.0323
     30 H           6.7757   -2.4804    0.0000 H       1  UNL1        0.0323
     31 H           6.6706    0.2859    0.0000 H       1  UNL1        0.0476
     32 H           6.2721    0.9762    0.0000 H       1  UNL1        0.0476
     33 H           4.3144   -3.2957    0.0000 H       1  UNL1        0.0576
     34 H           2.3322   -2.0681    0.0000 H       1  UNL1        0.0564
     35 H           1.9310   -2.7569    0.0000 H       1  UNL1        0.0564
     36 H           2.8846    0.5842    0.0000 H       1  UNL1        0.0658
     37 H           2.0173   -0.9071    0.0000 H       1  UNL1        0.2098
     38 H           5.7505    2.2388    0.0000 H       1  UNL1        0.0658
     39 H           2.0000   -3.9595    0.0000 H       1  UNL1        0.2094
     40 H           2.5396    3.0587    0.0000 H       1  UNL1        0.2923
     41 H           5.4917    3.4213    0.0000 H       1  UNL1        0.0660
     42 H           5.7219    4.2674    0.0000 H       1  UNL1        0.0660
     43 H           4.8759    4.4976    0.0000 H       1  UNL1        0.0660
@<TRIPOS>BOND
     1     9     1    1
     2     1    37    1
     3     2    17    1
     4     2    39    1
     5     3    21    1
     6     3    22    1
     7     4    20    1
     8     4    40    1
     9     5     6    1
    10     5    11    1
    11     5    14    1
    12     6     7    1
    13     6     8    1
    14     6    23    1
    15     7     9    1
    16     7    13    1
    17     7    24    1
    18     8    12    1
    19     8    15    2
    20     9    10    1
    21     9    25    1
    22    10    15    1
    23    10    17    1
    24    10    26    1
    25    11    12    1
    26    11    27    1
    27    11    28    1
    28    12    29    1
    29    12    30    1
    30    13    16   ar
    31    13    18   ar
    32    14    16    1
    33    14    31    1
    34    14    32    1
    35    15    33    1
    36    16    19   ar
    37    17    34    1
    38    17    35    1
    39    18    20   ar
    40    18    36    1
    41    19    21   ar
    42    19    38    1
    43    20    21   ar
    44    22    41    1
    45    22    42    1
    46    22    43    1
