@<TRIPOS>MOLECULE
IMPHY008280
 49 48 0 0 0
SMALL
GASTEIGER

@<TRIPOS>ATOM
      1 O          10.3312    0.2500    0.0000 O.2     1  UNL1       -0.2708
      2 N          11.1972    1.7500    0.0000 N.am    1  UNL1       -0.3116
      3 C          12.9292    1.7500    0.0000 C.3     1  UNL1       -0.0311
      4 C          12.0632    1.2500    0.0000 C.3     1  UNL1        0.0142
      5 C          13.7953    1.2500    0.0000 C.3     1  UNL1       -0.0612
      6 C          12.9292    2.7500    0.0000 C.3     1  UNL1       -0.0612
      7 C           5.1350    1.2500    0.0000 C.3     1  UNL1       -0.0313
      8 C          10.3312    1.2500    0.0000 C.2     1  UNL1        0.2369
      9 C           6.0010    1.7500    0.0000 C.3     1  UNL1       -0.0310
     10 C           4.2690    1.7500    0.0000 C.2     1  UNL1       -0.0874
     11 C           3.4030    0.2500    0.0000 C.3     1  UNL1       -0.0165
     12 C           6.8671    1.2500    0.0000 C.2     1  UNL1       -0.0837
     13 C           9.4651    1.7500    0.0000 C.2     1  UNL1        0.0001
     14 C           3.4030    1.2500    0.0000 C.2     1  UNL1       -0.0842
     15 C           7.7331    1.7500    0.0000 C.2     1  UNL1       -0.0655
     16 C           8.5991    1.2500    0.0000 C.2     1  UNL1       -0.0571
     17 C           2.5369   -0.2500    0.0000 C.2     1  UNL1       -0.0842
     18 C           3.4030   -1.7500    0.0000 C.3     1  UNL1       -0.0376
     19 C           2.5369   -1.2500    0.0000 C.2     1  UNL1       -0.0879
     20 C           3.4030   -2.7500    0.0000 C.3     1  UNL1       -0.0618
     21 H          12.3923    2.0600    0.0000 H       1  UNL1        0.0311
     22 H          11.6647    0.7751    0.0000 H       1  UNL1        0.0465
     23 H          12.4617    0.7751    0.0000 H       1  UNL1        0.0465
     24 H          13.4853    0.7131    0.0000 H       1  UNL1        0.0233
     25 H          14.3322    0.9400    0.0000 H       1  UNL1        0.0233
     26 H          14.1053    1.7869    0.0000 H       1  UNL1        0.0233
     27 H          13.5492    2.7500    0.0000 H       1  UNL1        0.0233
     28 H          12.9292    3.3700    0.0000 H       1  UNL1        0.0233
     29 H          12.3092    2.7500    0.0000 H       1  UNL1        0.0233
     30 H          11.1972    2.3700    0.0000 H       1  UNL1        0.1490
     31 H           4.7365    0.7751    0.0000 H       1  UNL1        0.0310
     32 H           5.5335    0.7751    0.0000 H       1  UNL1        0.0310
     33 H           6.3996    2.2250    0.0000 H       1  UNL1        0.0310
     34 H           5.6025    2.2250    0.0000 H       1  UNL1        0.0310
     35 H           4.2690    2.3700    0.0000 H       1  UNL1        0.0569
     36 H           3.6150   -0.3326    0.0000 H       1  UNL1        0.0350
     37 H           4.0135    0.3577    0.0000 H       1  UNL1        0.0350
     38 H           6.8671    0.6300    0.0000 H       1  UNL1        0.0572
     39 H           2.8660    1.5600    0.0000 H       1  UNL1        0.0572
     40 H           9.4651    2.3700    0.0000 H       1  UNL1        0.0669
     41 H           7.7331    2.3700    0.0000 H       1  UNL1        0.0614
     42 H           8.5991    0.6300    0.0000 H       1  UNL1        0.0619
     43 H           2.0000    0.0600    0.0000 H       1  UNL1        0.0572
     44 H           4.0135   -1.8577    0.0000 H       1  UNL1        0.0305
     45 H           3.6150   -1.1674    0.0000 H       1  UNL1        0.0305
     46 H           2.0000   -1.5600    0.0000 H       1  UNL1        0.0569
     47 H           2.7830   -2.7500    0.0000 H       1  UNL1        0.0233
     48 H           3.4030   -3.3700    0.0000 H       1  UNL1        0.0233
     49 H           4.0230   -2.7500    0.0000 H       1  UNL1        0.0233
@<TRIPOS>BOND
     1     1     8    2
     2     2     4    1
     3     2     8   am
     4     2    30    1
     5     3     4    1
     6     3     5    1
     7     3     6    1
     8     3    21    1
     9     4    22    1
    10     4    23    1
    11     5    24    1
    12     5    25    1
    13     5    26    1
    14     6    27    1
    15     6    28    1
    16     6    29    1
    17     7     9    1
    18     7    10    1
    19     7    31    1
    20     7    32    1
    21     8    13    1
    22     9    12    1
    23     9    33    1
    24     9    34    1
    25    10    14    2
    26    10    35    1
    27    11    14    1
    28    11    17    1
    29    11    36    1
    30    11    37    1
    31    12    15    2
    32    12    38    1
    33    13    16    2
    34    13    40    1
    35    14    39    1
    36    15    16    1
    37    15    41    1
    38    16    42    1
    39    17    19    2
    40    17    43    1
    41    18    19    1
    42    18    20    1
    43    18    44    1
    44    18    45    1
    45    19    46    1
    46    20    47    1
    47    20    48    1
    48    20    49    1
