@<TRIPOS>MOLECULE
IMPHY004867
 39 41 0 0 0
SMALL
GASTEIGER

@<TRIPOS>ATOM
      1 O           5.5301   -1.9279    0.0000 O.3     1  UNL1       -0.4900
      2 O           5.5301    1.0721    0.0000 O.2     1  UNL1       -0.2910
      3 O           8.1282   -1.4279    0.0000 O.3     1  UNL1       -0.4947
      4 O           3.7817    1.1067    0.0000 O.3     1  UNL1       -0.5058
      5 O           9.8602    1.5721    0.0000 O.3     1  UNL1       -0.4950
      6 O           2.0000   -1.9521    0.0000 O.3     1  UNL1       -0.5065
      7 C           6.3961   -0.4279    0.0000 C.3     1  UNL1        0.0847
      8 C           6.3961   -1.4279    0.0000 C.3     1  UNL1        0.1036
      9 C           7.2622    0.0721    0.0000 C.ar    1  UNL1        0.0083
     10 C           5.5301    0.0721    0.0000 C.2     1  UNL1        0.1809
     11 C           4.6641   -0.4279    0.0000 C.ar    1  UNL1        0.1012
     12 C           4.6641   -1.4279    0.0000 C.ar    1  UNL1        0.1380
     13 C           8.1282   -0.4279    0.0000 C.ar    1  UNL1        0.1275
     14 C           7.2622    1.0721    0.0000 C.ar    1  UNL1       -0.0509
     15 C           3.7702    0.1067    0.0000 C.ar    1  UNL1        0.1343
     16 C           3.7702   -1.9626    0.0000 C.ar    1  UNL1        0.0225
     17 C           8.9942    0.0721    0.0000 C.ar    1  UNL1        0.0220
     18 C           8.1282    1.5721    0.0000 C.ar    1  UNL1       -0.0194
     19 C           2.8641   -0.4071    0.0000 C.ar    1  UNL1        0.0222
     20 C           8.9942    1.0721    0.0000 C.ar    1  UNL1        0.1236
     21 C           2.8641   -1.4487    0.0000 C.ar    1  UNL1        0.1238
     22 C           8.9942   -1.9279    0.0000 C.3     1  UNL1        0.0788
     23 C           9.8602    2.5721    0.0000 C.3     1  UNL1        0.0788
     24 H           6.9331   -0.7379    0.0000 H       1  UNL1        0.0464
     25 H           6.6082   -2.0105    0.0000 H       1  UNL1        0.0707
     26 H           7.0067   -1.3203    0.0000 H       1  UNL1        0.0707
     27 H           6.7252    1.3821    0.0000 H       1  UNL1        0.0623
     28 H           3.7773   -2.5826    0.0000 H       1  UNL1        0.0691
     29 H           9.5312   -0.2379    0.0000 H       1  UNL1        0.0691
     30 H           8.1282    2.1921    0.0000 H       1  UNL1        0.0654
     31 H           2.3284   -0.0950    0.0000 H       1  UNL1        0.0691
     32 H           3.2484    1.4229    0.0000 H       1  UNL1        0.2922
     33 H           8.6842   -2.4649    0.0000 H       1  UNL1        0.0660
     34 H           9.5312   -2.2379    0.0000 H       1  UNL1        0.0660
     35 H           9.3042   -1.3910    0.0000 H       1  UNL1        0.0660
     36 H           2.0024   -2.5721    0.0000 H       1  UNL1        0.2921
     37 H          10.4803    2.5721    0.0000 H       1  UNL1        0.0660
     38 H           9.8602    3.1921    0.0000 H       1  UNL1        0.0660
     39 H           9.2402    2.5721    0.0000 H       1  UNL1        0.0660
@<TRIPOS>BOND
     1     1     8    1
     2     1    12    1
     3     2    10    2
     4     3    13    1
     5     3    22    1
     6     4    15    1
     7     4    32    1
     8     5    20    1
     9     5    23    1
    10     6    21    1
    11     6    36    1
    12     7     8    1
    13     7     9    1
    14     7    10    1
    15     7    24    1
    16     8    25    1
    17     8    26    1
    18     9    13   ar
    19     9    14   ar
    20    10    11    1
    21    11    12   ar
    22    11    15   ar
    23    12    16   ar
    24    13    17   ar
    25    14    18   ar
    26    14    27    1
    27    15    19   ar
    28    16    21   ar
    29    16    28    1
    30    17    20   ar
    31    17    29    1
    32    18    20   ar
    33    18    30    1
    34    19    21   ar
    35    19    31    1
    36    22    33    1
    37    22    34    1
    38    22    35    1
    39    23    37    1
    40    23    38    1
    41    23    39    1
