@<TRIPOS>MOLECULE
IMPHY008758
 41 42 0 0 0
SMALL
GASTEIGER

@<TRIPOS>ATOM
      1 O           8.1282    1.0414    0.0000 O.3     1  UNL1       -0.3918
      2 O           4.5981    2.0173    0.0000 O.2     1  UNL1       -0.2971
      3 C           5.4641   -0.4827    0.0000 C.3     1  UNL1       -0.0193
      4 C           5.4641    0.5173    0.0000 C.3     1  UNL1        0.0255
      5 C           6.3580   -1.0174    0.0000 C.3     1  UNL1       -0.0355
      6 C           4.5981   -0.9827    0.0000 C.3     1  UNL1       -0.0398
      7 C           6.3580    1.0520    0.0000 C.3     1  UNL1       -0.0168
      8 C           7.2641   -0.5035    0.0000 C.3     1  UNL1       -0.0237
      9 C           3.7320   -0.4827    0.0000 C.3     1  UNL1       -0.0132
     10 C           7.2641    0.5381    0.0000 C.3     1  UNL1        0.0562
     11 C           5.4641   -1.4827    0.0000 C.3     1  UNL1       -0.0587
     12 C           4.5981    1.0173    0.0000 C.2     1  UNL1        0.1376
     13 C           3.7320    0.5173    0.0000 C.3     1  UNL1        0.0126
     14 C           6.3465   -2.0173    0.0000 C.3     1  UNL1       -0.0618
     15 C           2.8660   -0.9827    0.0000 C.2     1  UNL1       -0.0762
     16 C           2.0000   -0.4827    0.0000 C.3     1  UNL1       -0.0438
     17 C           2.8660   -1.9827    0.0000 C.2     1  UNL1       -0.0994
     18 H           5.4576    1.3673    0.0000 H       1  UNL1        0.0384
     19 H           6.8920   -1.3325    0.0000 H       1  UNL1        0.0304
     20 H           4.1996   -1.4576    0.0000 H       1  UNL1        0.0277
     21 H           4.9966   -1.4576    0.0000 H       1  UNL1        0.0277
     22 H           6.7517    1.5310    0.0000 H       1  UNL1        0.0297
     23 H           5.9534    1.5218    0.0000 H       1  UNL1        0.0297
     24 H           7.4732   -1.0872    0.0000 H       1  UNL1        0.0293
     25 H           7.8750   -0.3974    0.0000 H       1  UNL1        0.0293
     26 H           3.7320   -1.1027    0.0000 H       1  UNL1        0.0350
     27 H           7.2605    1.1581    0.0000 H       1  UNL1        0.0593
     28 H           4.8441   -1.4827    0.0000 H       1  UNL1        0.0235
     29 H           5.4641   -2.1027    0.0000 H       1  UNL1        0.0235
     30 H           6.0841   -1.4827    0.0000 H       1  UNL1        0.0235
     31 H           3.5200    1.0999    0.0000 H       1  UNL1        0.0347
     32 H           3.1215    0.4096    0.0000 H       1  UNL1        0.0347
     33 H           5.7265   -2.0101    0.0000 H       1  UNL1        0.0233
     34 H           6.3393   -2.6373    0.0000 H       1  UNL1        0.0233
     35 H           6.9664   -2.0245    0.0000 H       1  UNL1        0.0233
     36 H           8.6663    0.7335    0.0000 H       1  UNL1        0.2098
     37 H           2.3100    0.0542    0.0000 H       1  UNL1        0.0274
     38 H           1.4631   -0.1727    0.0000 H       1  UNL1        0.0274
     39 H           1.6900   -1.0196    0.0000 H       1  UNL1        0.0274
     40 H           2.3291   -2.2927    0.0000 H       1  UNL1        0.0534
     41 H           3.4030   -2.2927    0.0000 H       1  UNL1        0.0534
@<TRIPOS>BOND
     1    10     1    1
     2     1    36    1
     3     2    12    2
     4     3     4    1
     5     3     5    1
     6     3     6    1
     7     3    11    1
     8     4     7    1
     9     4    12    1
    10     4    18    1
    11     5     8    1
    12     5    14    1
    13     5    19    1
    14     6     9    1
    15     6    20    1
    16     6    21    1
    17     7    10    1
    18     7    22    1
    19     7    23    1
    20     8    10    1
    21     8    24    1
    22     8    25    1
    23     9    13    1
    24     9    15    1
    25     9    26    1
    26    10    27    1
    27    11    28    1
    28    11    29    1
    29    11    30    1
    30    12    13    1
    31    13    31    1
    32    13    32    1
    33    14    33    1
    34    14    34    1
    35    14    35    1
    36    15    16    1
    37    15    17    2
    38    16    37    1
    39    16    38    1
    40    16    39    1
    41    17    40    1
    42    17    41    1
