@<TRIPOS>MOLECULE
IMPHY000114
 20 19 0 0 0
SMALL
GASTEIGER

@<TRIPOS>ATOM
      1 O           7.7331   -0.2500    0.0000 O.3     1  UNL1       -0.4679
      2 O           4.2690   -1.2500    0.0000 O.2     1  UNL1       -0.2950
      3 O           2.5369   -0.2500    0.0000 O.3     1  UNL1       -0.3875
      4 O           6.8671    1.2500    0.0000 O.2     1  UNL1       -0.2509
      5 C           5.1350    0.2500    0.0000 C.3     1  UNL1        0.0182
      6 C           6.0010   -0.2500    0.0000 C.3     1  UNL1        0.0516
      7 C           4.2690   -0.2500    0.0000 C.2     1  UNL1        0.1590
      8 C           6.8671    0.2500    0.0000 C.2     1  UNL1        0.3072
      9 C           3.4030    0.2500    0.0000 C.3     1  UNL1        0.1023
     10 C           8.5991    0.2500    0.0000 C.3     1  UNL1        0.0817
     11 H           5.5335    0.7249    0.0000 H       1  UNL1        0.0348
     12 H           4.7365    0.7249    0.0000 H       1  UNL1        0.0348
     13 H           5.6025   -0.7249    0.0000 H       1  UNL1        0.0382
     14 H           6.3996   -0.7249    0.0000 H       1  UNL1        0.0382
     15 H           3.8015    0.7249    0.0000 H       1  UNL1        0.0636
     16 H           3.0044    0.7249    0.0000 H       1  UNL1        0.0636
     17 H           8.9091   -0.2869    0.0000 H       1  UNL1        0.0661
     18 H           9.1360    0.5600    0.0000 H       1  UNL1        0.0661
     19 H           8.2891    0.7869    0.0000 H       1  UNL1        0.0661
     20 H           2.0000    0.0600    0.0000 H       1  UNL1        0.2100
@<TRIPOS>BOND
     1     1     8    1
     2     1    10    1
     3     2     7    2
     4     3     9    1
     5     3    20    1
     6     4     8    2
     7     5     6    1
     8     5     7    1
     9     5    11    1
    10     5    12    1
    11     6     8    1
    12     6    13    1
    13     6    14    1
    14     7     9    1
    15     9    15    1
    16     9    16    1
    17    10    17    1
    18    10    18    1
    19    10    19    1
