@<TRIPOS>MOLECULE
IMPHY009282
 97 101 0 0 0
SMALL
GASTEIGER

@<TRIPOS>ATOM
      1 O           8.3451   -1.9973    0.0000 O.3     1  UNL1       -0.4864
      2 O          10.0188   -0.0310    0.0000 O.2     1  UNL1       -0.2736
      3 O           9.7404    1.9541    0.0000 O.2     1  UNL1       -0.2735
      4 O          13.3954    0.9185    0.0000 O.2     1  UNL1       -0.2734
      5 O           6.2149    2.7100    0.0000 O.2     1  UNL1       -0.2741
      6 O          11.7217   -3.9468    0.0000 O.3     1  UNL1       -0.4945
      7 N           8.9811    0.3973    0.0000 N.am    1  UNL1       -0.2849
      8 N          10.8557   -0.5479    0.0000 N.am    1  UNL1       -0.3021
      9 N           7.1835    1.2741    0.0000 N.am    1  UNL1       -0.3024
     10 N          12.5294   -0.5479    0.0000 N.am    1  UNL1       -0.2904
     11 N           5.5254    0.1557    0.0000 N.3     1  UNL1       -0.3084
     12 C           9.1820   -0.5479    0.0000 C.3     1  UNL1        0.1390
     13 C           8.3451   -1.0310    0.0000 C.3     1  UNL1        0.1285
     14 C           7.6270   -0.3844    0.0000 C.3     1  UNL1        0.0024
     15 C           8.0201    0.4984    0.0000 C.3     1  UNL1        0.0191
     16 C          10.0188   -1.0310    0.0000 C.2     1  UNL1        0.2378
     17 C           8.9113    1.3949    0.0000 C.2     1  UNL1        0.2369
     18 C           8.0125    1.8333    0.0000 C.3     1  UNL1        0.1036
     19 C          10.8557    0.4185    0.0000 C.3     1  UNL1        0.1023
     20 C          11.0293    1.4033    0.0000 C.3     1  UNL1       -0.0171
     21 C           7.9428    2.8308    0.0000 C.3     1  UNL1       -0.0007
     22 C           9.1820   -2.4805    0.0000 C.ar    1  UNL1        0.1218
     23 C          11.9690    1.7453    0.0000 C.3     1  UNL1       -0.0512
     24 C          12.5294    0.4185    0.0000 C.2     1  UNL1        0.2374
     25 C          10.6873    2.3430    0.0000 C.3     1  UNL1       -0.0603
     26 C           8.7718    3.3900    0.0000 C.ar    1  UNL1       -0.0451
     27 C           6.2847    1.7124    0.0000 C.2     1  UNL1        0.2310
     28 C          10.0188   -1.9973    0.0000 C.ar    1  UNL1       -0.0092
     29 C           9.1820   -3.4468    0.0000 C.ar    1  UNL1       -0.0164
     30 C           5.4557    1.1533    0.0000 C.3     1  UNL1        0.0885
     31 C          12.7351    1.1025    0.0000 C.3     1  UNL1       -0.0650
     32 C          10.8557   -2.4805    0.0000 C.ar    1  UNL1        0.0213
     33 C           8.7020    4.3876    0.0000 C.ar    1  UNL1       -0.0585
     34 C           9.6706    2.9517    0.0000 C.ar    1  UNL1       -0.0585
     35 C          10.0188   -3.9300    0.0000 C.ar    1  UNL1       -0.0159
     36 C           4.5569    1.5916    0.0000 C.3     1  UNL1       -0.0037
     37 C          10.8557   -3.4468    0.0000 C.ar    1  UNL1        0.1275
     38 C          11.6925   -1.0310    0.0000 C.2     1  UNL1       -0.0030
     39 C          11.6925   -1.9973    0.0000 C.2     1  UNL1       -0.0371
     40 C           9.5311    4.9468    0.0000 C.ar    1  UNL1       -0.0615
     41 C          10.4996    3.5109    0.0000 C.ar    1  UNL1       -0.0615
     42 C           3.7278    1.0324    0.0000 C.ar    1  UNL1       -0.0454
     43 C          10.4299    4.5084    0.0000 C.ar    1  UNL1       -0.0617
     44 C           4.6964   -0.4035    0.0000 C.3     1  UNL1       -0.0151
     45 C           2.8290    1.4708    0.0000 C.ar    1  UNL1       -0.0585
     46 C           3.7976    0.0349    0.0000 C.ar    1  UNL1       -0.0585
     47 C          11.7217   -4.9468    0.0000 C.3     1  UNL1        0.0788
     48 C           2.0000    0.9116    0.0000 C.ar    1  UNL1       -0.0615
     49 C           2.9686   -0.5243    0.0000 C.ar    1  UNL1       -0.0615
     50 C           2.0698   -0.0860    0.0000 C.ar    1  UNL1       -0.0617
     51 H           9.6836   -0.1834    0.0000 H       1  UNL1        0.0634
     52 H           7.5686   -1.3767    0.0000 H       1  UNL1        0.0757
     53 H           7.0901   -0.0744    0.0000 H       1  UNL1        0.0317
     54 H           7.2626   -0.8860    0.0000 H       1  UNL1        0.0317
     55 H           8.1490    1.1048    0.0000 H       1  UNL1        0.0466
     56 H           7.4304    0.6899    0.0000 H       1  UNL1        0.0466
     57 H           7.4553    2.1051    0.0000 H       1  UNL1        0.0598
     58 H          10.2381    0.4725    0.0000 H       1  UNL1        0.0597
     59 H          11.3921   -0.2369    0.0000 H       1  UNL1        0.1495
     60 H          10.4117    1.3492    0.0000 H       1  UNL1        0.0321
     61 H           7.6906    3.3972    0.0000 H       1  UNL1        0.0336
     62 H           7.3412    2.6808    0.0000 H       1  UNL1        0.0336
     63 H           7.2267    0.6556    0.0000 H       1  UNL1        0.1495
     64 H          12.4440    2.1438    0.0000 H       1  UNL1        0.0266
     65 H          11.6590    2.2822    0.0000 H       1  UNL1        0.0266
     66 H          11.2699    2.5550    0.0000 H       1  UNL1        0.0233
     67 H          10.4753    2.9256    0.0000 H       1  UNL1        0.0233
     68 H          10.1047    2.1309    0.0000 H       1  UNL1        0.0233
     69 H          10.0188   -1.3773    0.0000 H       1  UNL1        0.0661
     70 H           8.6450   -3.7568    0.0000 H       1  UNL1        0.0655
     71 H           6.0129    0.8815    0.0000 H       1  UNL1        0.0559
     72 H          12.3365    0.6276    0.0000 H       1  UNL1        0.0230
     73 H          13.2100    0.7040    0.0000 H       1  UNL1        0.0230
     74 H          13.1336    1.5775    0.0000 H       1  UNL1        0.0230
     75 H          13.0663   -0.8579    0.0000 H       1  UNL1        0.1543
     76 H           8.1448    4.6594    0.0000 H       1  UNL1        0.0620
     77 H           9.7139    2.3332    0.0000 H       1  UNL1        0.0620
     78 H          10.0188   -4.5500    0.0000 H       1  UNL1        0.0655
     79 H           4.9213    2.0932    0.0000 H       1  UNL1        0.0333
     80 H           4.1262    2.0376    0.0000 H       1  UNL1        0.0333
     81 H          12.2295   -1.3410    0.0000 H       1  UNL1        0.0782
     82 H          12.2295   -2.3073    0.0000 H       1  UNL1        0.0637
     83 H           6.0827   -0.1161    0.0000 H       1  UNL1        0.1223
     84 H           9.4878    5.5653    0.0000 H       1  UNL1        0.0618
     85 H          11.0569    3.2391    0.0000 H       1  UNL1        0.0618
     86 H          10.9439    4.8551    0.0000 H       1  UNL1        0.0618
     87 H           4.3497    0.1105    0.0000 H       1  UNL1        0.0388
     88 H           4.1824   -0.7502    0.0000 H       1  UNL1        0.0388
     89 H           5.0431   -0.9175    0.0000 H       1  UNL1        0.0388
     90 H           2.7858    2.0893    0.0000 H       1  UNL1        0.0620
     91 H           4.3548   -0.2369    0.0000 H       1  UNL1        0.0620
     92 H          11.1017   -4.9468    0.0000 H       1  UNL1        0.0660
     93 H          11.7217   -5.5668    0.0000 H       1  UNL1        0.0660
     94 H          12.3417   -4.9468    0.0000 H       1  UNL1        0.0660
     95 H           1.4428    1.1834    0.0000 H       1  UNL1        0.0618
     96 H           3.0118   -1.1428    0.0000 H       1  UNL1        0.0618
     97 H           1.5558   -0.4327    0.0000 H       1  UNL1        0.0618
@<TRIPOS>BOND
     1     1    13    1
     2     1    22    1
     3     2    16    2
     4     3    17    2
     5     4    24    2
     6     5    27    2
     7     6    37    1
     8     6    47    1
     9     7    12    1
    10     7    15    1
    11     7    17   am
    12     8    16   am
    13     8    19    1
    14     8    59    1
    15    18     9    1
    16     9    27   am
    17     9    63    1
    18    10    24   am
    19    10    38    1
    20    10    75    1
    21    30    11    1
    22    11    44    1
    23    11    83    1
    24    12    13    1
    25    12    16    1
    26    12    51    1
    27    13    14    1
    28    13    52    1
    29    14    15    1
    30    14    53    1
    31    14    54    1
    32    15    55    1
    33    15    56    1
    34    17    18    1
    35    18    21    1
    36    18    57    1
    37    19    20    1
    38    19    24    1
    39    19    58    1
    40    20    23    1
    41    20    25    1
    42    20    60    1
    43    21    26    1
    44    21    61    1
    45    21    62    1
    46    22    28   ar
    47    22    29   ar
    48    23    31    1
    49    23    64    1
    50    23    65    1
    51    25    66    1
    52    25    67    1
    53    25    68    1
    54    26    33   ar
    55    26    34   ar
    56    27    30    1
    57    28    32   ar
    58    28    69    1
    59    29    35   ar
    60    29    70    1
    61    30    36    1
    62    30    71    1
    63    31    72    1
    64    31    73    1
    65    31    74    1
    66    32    37   ar
    67    32    39    1
    68    33    40   ar
    69    33    76    1
    70    34    41   ar
    71    34    77    1
    72    35    37   ar
    73    35    78    1
    74    36    42    1
    75    36    79    1
    76    36    80    1
    77    38    39    2
    78    38    81    1
    79    39    82    1
    80    40    43   ar
    81    40    84    1
    82    41    43   ar
    83    41    85    1
    84    42    45   ar
    85    42    46   ar
    86    43    86    1
    87    44    87    1
    88    44    88    1
    89    44    89    1
    90    45    48   ar
    91    45    90    1
    92    46    49   ar
    93    46    91    1
    94    47    92    1
    95    47    93    1
    96    47    94    1
    97    48    50   ar
    98    48    95    1
    99    49    50   ar
   100    49    96    1
   101    50    97    1
