@<TRIPOS>MOLECULE
IMPHY013155
 50 52 0 0 0
SMALL
GASTEIGER

@<TRIPOS>ATOM
      1 O           8.6793   -0.3833    0.0000 O.3     1  UNL1       -0.4797
      2 O           6.8671   -1.5786    0.0000 O.3     1  UNL1       -0.4914
      3 O          12.2629   -1.3106    0.0000 O.3     1  UNL1       -0.4914
      4 O          13.2629    0.4214    0.0000 O.3     1  UNL1       -0.4915
      5 O           2.5369    0.9214    0.0000 O.3     1  UNL1       -0.3910
      6 C           8.6793    1.2261    0.0000 C.3     1  UNL1        0.0262
      7 C           9.2629    0.4214    0.0000 C.3     1  UNL1        0.1321
      8 C           7.7331    0.9214    0.0000 C.ar    1  UNL1        0.0052
      9 C           7.7331   -0.0786    0.0000 C.ar    1  UNL1        0.1664
     10 C          10.2629    0.4214    0.0000 C.ar    1  UNL1       -0.0031
     11 C           8.9900    2.1767    0.0000 C.3     1  UNL1       -0.0546
     12 C           6.8671    1.4214    0.0000 C.ar    1  UNL1       -0.0473
     13 C           6.8671   -0.5786    0.0000 C.ar    1  UNL1        0.1624
     14 C           6.0010    0.9214    0.0000 C.ar    1  UNL1       -0.0213
     15 C          10.7629   -0.4446    0.0000 C.ar    1  UNL1       -0.0096
     16 C          10.7629    1.2874    0.0000 C.ar    1  UNL1       -0.0514
     17 C           6.0010   -0.0786    0.0000 C.ar    1  UNL1       -0.0091
     18 C          11.7629   -0.4446    0.0000 C.ar    1  UNL1        0.1619
     19 C          11.7629    1.2874    0.0000 C.ar    1  UNL1       -0.0159
     20 C          12.2629    0.4214    0.0000 C.ar    1  UNL1        0.1615
     21 C           5.1350    1.4214    0.0000 C.2     1  UNL1       -0.0563
     22 C           6.0010   -2.0786    0.0000 C.3     1  UNL1        0.0790
     23 C           4.2690    0.9214    0.0000 C.2     1  UNL1       -0.0584
     24 C           3.4030    1.4214    0.0000 C.3     1  UNL1        0.0627
     25 C          11.7629   -2.1767    0.0000 C.3     1  UNL1        0.0790
     26 C          13.7629    1.2874    0.0000 C.3     1  UNL1        0.0790
     27 H           8.2418    1.6655    0.0000 H       1  UNL1        0.0387
     28 H           9.5446   -0.1309    0.0000 H       1  UNL1        0.0790
     29 H           9.5793    1.9840    0.0000 H       1  UNL1        0.0237
     30 H           9.1826    2.7660    0.0000 H       1  UNL1        0.0237
     31 H           8.4006    2.3693    0.0000 H       1  UNL1        0.0237
     32 H           6.8671    2.0414    0.0000 H       1  UNL1        0.0627
     33 H          10.4529   -0.9815    0.0000 H       1  UNL1        0.0659
     34 H          10.4529    1.8244    0.0000 H       1  UNL1        0.0623
     35 H           5.4641   -0.3886    0.0000 H       1  UNL1        0.0661
     36 H          12.0729    1.8244    0.0000 H       1  UNL1        0.0655
     37 H           5.1350    2.0414    0.0000 H       1  UNL1        0.0621
     38 H           5.6910   -1.5416    0.0000 H       1  UNL1        0.0660
     39 H           5.4641   -2.3886    0.0000 H       1  UNL1        0.0660
     40 H           6.3110   -2.6155    0.0000 H       1  UNL1        0.0660
     41 H           4.2690    0.3014    0.0000 H       1  UNL1        0.0595
     42 H           3.8015    1.8964    0.0000 H       1  UNL1        0.0601
     43 H           3.0044    1.8964    0.0000 H       1  UNL1        0.0601
     44 H          11.2260   -1.8667    0.0000 H       1  UNL1        0.0660
     45 H          11.4529   -2.7136    0.0000 H       1  UNL1        0.0660
     46 H          12.2999   -2.4867    0.0000 H       1  UNL1        0.0660
     47 H          14.2999    0.9774    0.0000 H       1  UNL1        0.0660
     48 H          14.0729    1.8244    0.0000 H       1  UNL1        0.0660
     49 H          13.2260    1.5974    0.0000 H       1  UNL1        0.0660
     50 H           2.0000    1.2314    0.0000 H       1  UNL1        0.2098
@<TRIPOS>BOND
     1     1     7    1
     2     1     9    1
     3     2    13    1
     4     2    22    1
     5     3    18    1
     6     3    25    1
     7     4    20    1
     8     4    26    1
     9     5    24    1
    10     5    50    1
    11     6     7    1
    12     6     8    1
    13     6    11    1
    14     6    27    1
    15     7    10    1
    16     7    28    1
    17     8     9   ar
    18     8    12   ar
    19     9    13   ar
    20    10    15   ar
    21    10    16   ar
    22    11    29    1
    23    11    30    1
    24    11    31    1
    25    12    14   ar
    26    12    32    1
    27    13    17   ar
    28    14    17   ar
    29    14    21    1
    30    15    18   ar
    31    15    33    1
    32    16    19   ar
    33    16    34    1
    34    17    35    1
    35    18    20   ar
    36    19    20   ar
    37    19    36    1
    38    21    23    2
    39    21    37    1
    40    22    38    1
    41    22    39    1
    42    22    40    1
    43    23    24    1
    44    23    41    1
    45    24    42    1
    46    24    43    1
    47    25    44    1
    48    25    45    1
    49    25    46    1
    50    26    47    1
    51    26    48    1
    52    26    49    1
