@<TRIPOS>MOLECULE
IMPHY012667
 40 42 0 0 0
SMALL
GASTEIGER

@<TRIPOS>ATOM
      1 O           2.6735   -2.2093    0.0000 O.3     1  UNL1       -0.3650
      2 C           4.7057    0.6268    0.0000 C.3     1  UNL1       -0.0292
      3 C           5.3570    1.3965    0.0000 C.3     1  UNL1       -0.0310
      4 C           3.9397    1.2696    0.0000 C.3     1  UNL1       -0.0163
      5 C           4.5846    2.0447    0.0000 C.3     1  UNL1       -0.0408
      6 C           3.4397   -1.5660    0.0000 C.3     1  UNL1        0.0932
      7 C           4.8794   -0.3580    0.0000 C.3     1  UNL1       -0.0465
      8 C           2.5000   -1.2240    0.0000 C.3     1  UNL1        0.0884
      9 C           4.3794   -1.2240    0.0000 C.3     1  UNL1       -0.0213
     10 C           2.9397    1.2696    0.0000 C.2     1  UNL1       -0.0731
     11 C           2.0000   -0.3580    0.0000 C.3     1  UNL1       -0.0202
     12 C           6.0014    2.1613    0.0000 C.3     1  UNL1       -0.0595
     13 C           6.1217    0.7522    0.0000 C.3     1  UNL1       -0.0595
     14 C           2.1736    0.6268    0.0000 C.3     1  UNL1       -0.0293
     15 C           4.3794   -1.9080    0.0000 C.3     1  UNL1       -0.0334
     16 C           2.5977    2.2093    0.0000 C.2     1  UNL1       -0.0992
     17 H           5.5263    0.4051    0.0000 H       1  UNL1        0.0312
     18 H           3.5789    2.0392    0.0000 H       1  UNL1        0.0349
     19 H           4.9825    2.5202    0.0000 H       1  UNL1        0.0276
     20 H           4.1086    2.4419    0.0000 H       1  UNL1        0.0276
     21 H           5.3049   -0.8090    0.0000 H       1  UNL1        0.0269
     22 H           5.4334   -0.0797    0.0000 H       1  UNL1        0.0269
     23 H           1.7012   -1.5146    0.0000 H       1  UNL1        0.0625
     24 H           4.4154   -1.8430    0.0000 H       1  UNL1        0.0294
     25 H           4.9827   -1.3670    0.0000 H       1  UNL1        0.0294
     26 H           1.4460   -0.0797    0.0000 H       1  UNL1        0.0294
     27 H           1.5745   -0.8090    0.0000 H       1  UNL1        0.0294
     28 H           6.4755    1.7618    0.0000 H       1  UNL1        0.0235
     29 H           6.4009    2.6354    0.0000 H       1  UNL1        0.0235
     30 H           5.5273    2.5608    0.0000 H       1  UNL1        0.0235
     31 H           5.7222    0.2781    0.0000 H       1  UNL1        0.0235
     32 H           6.5959    0.3527    0.0000 H       1  UNL1        0.0235
     33 H           6.5212    1.2263    0.0000 H       1  UNL1        0.0235
     34 H           1.9281    1.1961    0.0000 H       1  UNL1        0.0311
     35 H           1.5578    0.5548    0.0000 H       1  UNL1        0.0311
     36 H           4.1673   -2.4907    0.0000 H       1  UNL1        0.0258
     37 H           4.9620   -2.1201    0.0000 H       1  UNL1        0.0258
     38 H           4.5914   -1.3254    0.0000 H       1  UNL1        0.0258
     39 H           2.9962    2.6842    0.0000 H       1  UNL1        0.0534
     40 H           1.9871    2.3170    0.0000 H       1  UNL1        0.0534
@<TRIPOS>BOND
     1     1     6    1
     2     1     8    1
     3     2     3    1
     4     2     4    1
     5     2     7    1
     6     2    17    1
     7     3     5    1
     8     3    12    1
     9     3    13    1
    10     4     5    1
    11     4    10    1
    12     4    18    1
    13     5    19    1
    14     5    20    1
    15     6     8    1
    16     6     9    1
    17     6    15    1
    18     7     9    1
    19     7    21    1
    20     7    22    1
    21     8    11    1
    22     8    23    1
    23     9    24    1
    24     9    25    1
    25    10    14    1
    26    10    16    2
    27    11    14    1
    28    11    26    1
    29    11    27    1
    30    12    28    1
    31    12    29    1
    32    12    30    1
    33    13    31    1
    34    13    32    1
    35    13    33    1
    36    14    34    1
    37    14    35    1
    38    15    36    1
    39    15    37    1
    40    15    38    1
    41    16    39    1
    42    16    40    1
