@<TRIPOS>MOLECULE
IMPHY009430
 24 24 0 0 0
SMALL
GASTEIGER

@<TRIPOS>ATOM
      1 O           5.6454    1.6194    0.0000 O.3     1  UNL1       -0.3876
      2 O           3.4699    1.6194    0.0000 O.3     1  UNL1       -0.3876
      3 O           6.5256   -1.4278    0.0000 O.3     1  UNL1       -0.3934
      4 O           2.5896   -1.4278    0.0000 O.3     1  UNL1       -0.3934
      5 N           4.5576   -0.7284    0.0000 N.3     1  UNL1       -0.3018
      6 CA          5.3667   -0.1407    0.0000 C.3     1  UNL1        0.0598
      7 CA          3.7486   -0.1407    0.0000 C.3     1  UNL1        0.0598
      8 C           5.0576    0.8104    0.0000 C.3     1  UNL1        0.1000
      9 C           4.0576    0.8104    0.0000 C.3     1  UNL1        0.1000
     10 C           6.3177   -0.4497    0.0000 C.3     1  UNL1        0.0620
     11 C           2.7976   -0.4497    0.0000 C.3     1  UNL1        0.0620
     12 HA          5.4636   -0.7530    0.0000 H       1  UNL1        0.0509
     13 HA          3.6516   -0.7530    0.0000 H       1  UNL1        0.0509
     14 H           4.7762    1.3628    0.0000 H       1  UNL1        0.0636
     15 H           3.4453    0.7134    0.0000 H       1  UNL1        0.0636
     16 H           4.5576   -1.3484    0.0000 H       1  UNL1        0.1228
     17 H1          6.9373   -0.4280    0.0000 H       1  UNL1        0.0573
     18 H2          6.4040    0.1643    0.0000 H       1  UNL1        0.0573
     19 H1          2.7113    0.1643    0.0000 H       1  UNL1        0.0573
     20 H2          2.1779   -0.4280    0.0000 H       1  UNL1        0.0573
     21 H           6.2620    1.5546    0.0000 H       1  UNL1        0.2100
     22 H           2.8532    1.5546    0.0000 H       1  UNL1        0.2100
     23 H           7.1153   -1.6194    0.0000 H       1  UNL1        0.2095
     24 H           2.0000   -1.6194    0.0000 H       1  UNL1        0.2095
@<TRIPOS>BOND
     1     8     1    1
     2     1    21    1
     3     9     2    1
     4     2    22    1
     5     3    10    1
     6     3    23    1
     7     4    11    1
     8     4    24    1
     9     5     6    1
    10     5     7    1
    11     5    16    1
    12     6     8    1
    13     6    10    1
    14     6    12    1
    15     7     9    1
    16     7    11    1
    17     7    13    1
    18     8     9    1
    19     8    14    1
    20     9    15    1
    21    10    17    1
    22    10    18    1
    23    11    19    1
    24    11    20    1
