@<TRIPOS>MOLECULE
IMPHY008234
 47 50 0 0 0
SMALL
GASTEIGER

@<TRIPOS>ATOM
      1 O           9.8882    1.4517    0.0000 O.3     1  UNL1       -0.4780
      2 O           5.5301   -2.0829    0.0000 O.3     1  UNL1       -0.4900
      3 O           5.5301    0.9171    0.0000 O.2     1  UNL1       -0.2910
      4 O           8.1282    2.4171    0.0000 O.3     1  UNL1       -0.5033
      5 O           3.7817    0.9517    0.0000 O.3     1  UNL1       -0.4942
      6 O           2.0000   -2.1071    0.0000 O.3     1  UNL1       -0.5065
      7 C           6.3961   -0.5829    0.0000 C.3     1  UNL1        0.0815
      8 C           7.2622   -0.0829    0.0000 C.ar    1  UNL1       -0.0294
      9 C          10.7942    0.9379    0.0000 C.3     1  UNL1        0.1237
     10 C           6.3961   -1.5829    0.0000 C.3     1  UNL1        0.1034
     11 C           5.5301   -0.0829    0.0000 C.2     1  UNL1        0.1808
     12 C           8.9942   -0.0829    0.0000 C.ar    1  UNL1        0.0205
     13 C           8.9942    0.9171    0.0000 C.ar    1  UNL1        0.1700
     14 C           8.1282   -0.5829    0.0000 C.ar    1  UNL1       -0.0469
     15 C           4.6641   -0.5829    0.0000 C.ar    1  UNL1        0.1014
     16 C           7.2622    0.9171    0.0000 C.ar    1  UNL1       -0.0125
     17 C          10.7942   -0.1037    0.0000 C.2     1  UNL1       -0.0409
     18 C           8.1282    1.4171    0.0000 C.ar    1  UNL1        0.1594
     19 C           4.6641   -1.5829    0.0000 C.ar    1  UNL1        0.1380
     20 C           9.8882   -0.6176    0.0000 C.2     1  UNL1       -0.0512
     21 C          11.7942    0.9417    0.0000 C.3     1  UNL1       -0.0215
     22 C          11.2909    1.8058    0.0000 C.3     1  UNL1       -0.0215
     23 C           3.7702   -0.0483    0.0000 C.ar    1  UNL1        0.1376
     24 C           3.7702   -2.1176    0.0000 C.ar    1  UNL1        0.0225
     25 C           2.8641   -0.5621    0.0000 C.ar    1  UNL1        0.0225
     26 C           2.8641   -1.6037    0.0000 C.ar    1  UNL1        0.1238
     27 C           2.9215    1.4616    0.0000 C.3     1  UNL1        0.0788
     28 H           6.9331   -0.8929    0.0000 H       1  UNL1        0.0463
     29 H           6.6082   -2.1655    0.0000 H       1  UNL1        0.0707
     30 H           7.0067   -1.4753    0.0000 H       1  UNL1        0.0707
     31 H           8.1282   -1.2029    0.0000 H       1  UNL1        0.0628
     32 H           6.7252    1.2271    0.0000 H       1  UNL1        0.0658
     33 H          11.3300   -0.4158    0.0000 H       1  UNL1        0.0611
     34 H           9.8810   -1.2376    0.0000 H       1  UNL1        0.0623
     35 H          11.7966    0.3217    0.0000 H       1  UNL1        0.0271
     36 H          12.4142    0.9441    0.0000 H       1  UNL1        0.0271
     37 H          11.8290    1.4979    0.0000 H       1  UNL1        0.0271
     38 H          11.5988    2.3440    0.0000 H       1  UNL1        0.0271
     39 H          10.7528    2.1138    0.0000 H       1  UNL1        0.0271
     40 H          11.7918    1.5617    0.0000 H       1  UNL1        0.0271
     41 H           3.7773   -2.7376    0.0000 H       1  UNL1        0.0691
     42 H           2.3284   -0.2500    0.0000 H       1  UNL1        0.0691
     43 H           7.5913    2.7271    0.0000 H       1  UNL1        0.2923
     44 H           3.2377    1.9950    0.0000 H       1  UNL1        0.0660
     45 H           2.3882    1.7778    0.0000 H       1  UNL1        0.0660
     46 H           2.6054    0.9283    0.0000 H       1  UNL1        0.0660
     47 H           2.0024   -2.7271    0.0000 H       1  UNL1        0.2921
@<TRIPOS>BOND
     1     1     9    1
     2     1    13    1
     3     2    10    1
     4     2    19    1
     5     3    11    2
     6     4    18    1
     7     4    43    1
     8     5    23    1
     9     5    27    1
    10     6    26    1
    11     6    47    1
    12     7     8    1
    13     7    10    1
    14     7    11    1
    15     7    28    1
    16     8    14   ar
    17     8    16   ar
    18     9    17    1
    19     9    21    1
    20     9    22    1
    21    10    29    1
    22    10    30    1
    23    11    15    1
    24    12    13   ar
    25    12    14   ar
    26    12    20    1
    27    13    18   ar
    28    14    31    1
    29    15    19   ar
    30    15    23   ar
    31    16    18   ar
    32    16    32    1
    33    17    20    2
    34    17    33    1
    35    19    24   ar
    36    20    34    1
    37    21    35    1
    38    21    36    1
    39    21    40    1
    40    22    37    1
    41    22    38    1
    42    22    39    1
    43    23    25   ar
    44    24    26   ar
    45    24    41    1
    46    25    26   ar
    47    25    42    1
    48    27    44    1
    49    27    45    1
    50    27    46    1
