@<TRIPOS>MOLECULE
IMPHY002386
 33 37 0 0 0
SMALL
GASTEIGER

@<TRIPOS>ATOM
      1 C        2532.1400 2455.2600    0.0000 C.3     1  UNL1        0.0001
      2 C        2532.1400 2495.2400    0.0000 C.3     1  UNL1        0.0028
      3 C        2532.1400 2535.5200    0.0000 C.3     1  UNL1        0.0370
      4 C        2566.6700 2555.6600    0.0000 C.3     1  UNL1        0.0539
      5 C        2532.0400 2575.6000    0.0000 C.3     1  UNL1        0.0074
      6 C        2601.2900 2535.5200    0.0000 C.3     1  UNL1        0.0066
      7 C        2601.2900 2495.2400    0.0000 C.3     1  UNL1        0.0004
      8 C        2566.6700 2475.1000    0.0000 C.3     1  UNL1        0.0001
      9 C        2635.8200 2555.6600    0.0000 C.3     1  UNL1        0.0008
     10 C        2649.5100 2518.0600    0.0000 C.3     1  UNL1        0.0000
     11 C        2675.1000 2562.6000    0.0000 C.3     1  UNL1        0.0000
     12 C        2635.8200 2595.9300    0.0000 C.3     1  UNL1        0.0078
     13 C        2601.2900 2616.0700    0.0000 C.3     1  UNL1        0.0645
     14 C        2566.6700 2595.9300    0.0000 C.2     1  UNL1        0.1499
     15 O        2532.0400 2615.8800    0.0000 O.2     1  UNL1       -0.2961
     16 C        2497.6200 2555.6600    0.0000 C.3     1  UNL1        0.1523
     17 O        2497.6200 2595.6400    0.0000 O.3     1  UNL1       -0.2231
     18 C        2463.0900 2535.5200    0.0000 C.3     1  UNL1        0.0329
     19 C        2463.0900 2495.2400    0.0000 C.3     1  UNL1        0.0025
     20 C        2497.6200 2475.1000    0.0000 C.3     1  UNL1        0.0002
     21 C        2526.3900 2447.3200    0.0000 C.3     1  UNL1        0.0000
     22 C        2497.6200 2434.8200    0.0000 C.3     1  UNL1        0.0000
     23 C        2463.0900 2414.5800    0.0000 C.3     1  UNL1        0.0001
     24 C        2428.5700 2434.8200    0.0000 C.3     1  UNL1        0.0024
     25 C        2428.5700 2475.1000    0.0000 C.3     1  UNL1        0.0002
     26 C        2428.5700 2515.0800    0.0000 C.3     1  UNL1        0.0000
     27 C        2394.0400 2495.2400    0.0000 C.3     1  UNL1        0.0026
     28 C        2359.5200 2475.1000    0.0000 C.3     1  UNL1        0.0329
     29 C        2359.5200 2434.8200    0.0000 C.3     1  UNL1        0.1519
     30 C        2394.0400 2414.5800    0.0000 C.3     1  UNL1        0.0282
     31 C        2368.3500 2383.9300    0.0000 C.3     1  UNL1        0.0025
     32 C        2419.7400 2383.9300    0.0000 C.3     1  UNL1        0.0025
     33 O        2324.9000 2414.7800    0.0000 O.3     1  UNL1       -0.2232
@<TRIPOS>BOND
     1     1     2    1
     2     2     3    1
     3     2     8    1
     4     2    20    1
     5     3     4    1
     6     3    16    1
     7     4     5    1
     8     4     6    1
     9     4    14    1
    10     6     9    1
    11     7     6    1
    12     8     7    1
    13     9    10    1
    14     9    11    1
    15     9    12    1
    16    13    12    1
    17    14    13    1
    18    14    15    2
    19    16    17    1
    20    16    18    1
    21    19    18    1
    22    19    25    1
    23    20    19    1
    24    20    21    1
    25    20    22    1
    26    22    23    1
    27    23    24    1
    28    24    30    1
    29    25    24    1
    30    25    26    1
    31    25    27    1
    32    27    28    1
    33    28    29    1
    34    29    33    1
    35    30    29    1
    36    30    31    1
    37    30    32    1
