@<TRIPOS>MOLECULE
IMPHY004733
 52 56 0 0 0
SMALL
GASTEIGER

@<TRIPOS>ATOM
      1 O           4.9867   -1.3209    0.0000 O.3     1  UNL1       -0.4868
      2 O           8.0628    0.4230    0.0000 O.3     1  UNL1       -0.4807
      3 O           5.0145    2.2151    0.0000 O.2     1  UNL1       -0.4213
      4 O           8.0559   -1.3093    0.0000 O.2     1  UNL1       -0.2914
      5 O           3.4762    3.0911    0.0000 O.2     1  UNL1       -0.2452
      6 C           6.5422   -2.2270    0.0000 C.3     1  UNL1        0.0562
      7 C           5.5005   -2.2270    0.0000 C.3     1  UNL1        0.1070
      8 C           6.5214   -0.4270    0.0000 C.ar    1  UNL1        0.1024
      9 C           5.5214   -0.4270    0.0000 C.ar    1  UNL1        0.1462
     10 C           7.0214    0.4391    0.0000 C.ar    1  UNL1        0.1464
     11 C           7.0560   -1.3209    0.0000 C.2     1  UNL1        0.1765
     12 C           5.0214    0.4391    0.0000 C.ar    1  UNL1        0.0684
     13 C           6.5214    1.3051    0.0000 C.ar    1  UNL1        0.0604
     14 C           8.5906    1.3210    0.0000 C.3     1  UNL1        0.1235
     15 C           5.5214    1.3051    0.0000 C.ar    1  UNL1        0.1538
     16 C           7.0455   -3.0911    0.0000 C.3     1  UNL1       -0.0519
     17 C           4.9972   -3.0911    0.0000 C.3     1  UNL1       -0.0271
     18 C           7.0282    2.2151    0.0000 C.2     1  UNL1       -0.0477
     19 C           8.0698    2.2231    0.0000 C.2     1  UNL1       -0.0408
     20 C           3.9798    0.4230    0.0000 C.ar    1  UNL1        0.0031
     21 C           9.4586    1.8177    0.0000 C.3     1  UNL1       -0.0215
     22 C           9.4547    0.8177    0.0000 C.3     1  UNL1       -0.0215
     23 C           3.4521    1.3210    0.0000 C.ar    1  UNL1        0.0314
     24 C           3.4899   -0.4487    0.0000 C.ar    1  UNL1       -0.0169
     25 C           3.9729    2.2231    0.0000 C.ar    1  UNL1        0.3378
     26 C           2.4900   -0.4603    0.0000 C.ar    1  UNL1       -0.0540
     27 C           3.9999   -1.3089    0.0000 C.ar    1  UNL1       -0.0540
     28 C           2.0000   -1.3321    0.0000 C.ar    1  UNL1       -0.0612
     29 C           3.5099   -2.1807    0.0000 C.ar    1  UNL1       -0.0612
     30 C           2.5100   -2.1922    0.0000 C.ar    1  UNL1       -0.0617
     31 H           6.2332   -2.7645    0.0000 H       1  UNL1        0.0414
     32 H           4.8805   -2.2234    0.0000 H       1  UNL1        0.0737
     33 H           6.5098   -3.4031    0.0000 H       1  UNL1        0.0238
     34 H           7.3576   -3.6268    0.0000 H       1  UNL1        0.0238
     35 H           7.5812   -2.7790    0.0000 H       1  UNL1        0.0238
     36 H           4.4615   -2.7790    0.0000 H       1  UNL1        0.0265
     37 H           4.6851   -3.6268    0.0000 H       1  UNL1        0.0265
     38 H           5.5329   -3.4031    0.0000 H       1  UNL1        0.0265
     39 H           6.7120    2.7484    0.0000 H       1  UNL1        0.0624
     40 H           8.3777    2.7612    0.0000 H       1  UNL1        0.0611
     41 H           9.1426    0.2820    0.0000 H       1  UNL1        0.0271
     42 H           9.9904    0.5056    0.0000 H       1  UNL1        0.0271
     43 H           9.7668    1.3534    0.0000 H       1  UNL1        0.0271
     44 H           9.7665    1.2796    0.0000 H       1  UNL1        0.0271
     45 H           9.9967    2.1256    0.0000 H       1  UNL1        0.0271
     46 H           9.1506    2.3558    0.0000 H       1  UNL1        0.0271
     47 H           2.8321    1.3187    0.0000 H       1  UNL1        0.0695
     48 H           2.1738    0.0730    0.0000 H       1  UNL1        0.0624
     49 H           4.6198   -1.3018    0.0000 H       1  UNL1        0.0624
     50 H           1.3800   -1.3392    0.0000 H       1  UNL1        0.0618
     51 H           3.8261   -2.7140    0.0000 H       1  UNL1        0.0618
     52 H           2.2062   -2.7327    0.0000 H       1  UNL1        0.0618
@<TRIPOS>BOND
     1     1     7    1
     2     1     9    1
     3     2    10    1
     4     2    14    1
     5     3    15   ar
     6     3    25   ar
     7     4    11    2
     8     5    25    2
     9     6     7    1
    10     6    11    1
    11     6    16    1
    12     6    31    1
    13     7    17    1
    14     7    32    1
    15     8     9   ar
    16     8    10   ar
    17     8    11    1
    18     9    12   ar
    19    10    13   ar
    20    12    15   ar
    21    12    20   ar
    22    13    15   ar
    23    13    18    1
    24    14    19    1
    25    14    21    1
    26    14    22    1
    27    16    33    1
    28    16    34    1
    29    16    35    1
    30    17    36    1
    31    17    37    1
    32    17    38    1
    33    18    19    2
    34    18    39    1
    35    19    40    1
    36    20    23   ar
    37    20    24    1
    38    21    44    1
    39    21    45    1
    40    21    46    1
    41    22    41    1
    42    22    42    1
    43    22    43    1
    44    23    25   ar
    45    23    47    1
    46    24    26   ar
    47    24    27   ar
    48    26    28   ar
    49    26    48    1
    50    27    29   ar
    51    27    49    1
    52    28    30   ar
    53    28    50    1
    54    29    30   ar
    55    29    51    1
    56    30    52    1
