@<TRIPOS>MOLECULE
IMPHY015330
 58 57 0 0 0
SMALL
GASTEIGER

@<TRIPOS>ATOM
      1 C           8.9282   -0.2500    0.0000 C.3     1  UNL1       -0.0531
      2 C           8.0622   -0.7500    0.0000 C.3     1  UNL1       -0.0531
      3 C           9.7942   -0.7500    0.0000 C.3     1  UNL1       -0.0531
      4 C           7.1962   -0.2500    0.0000 C.3     1  UNL1       -0.0531
      5 C          10.6603   -0.2500    0.0000 C.3     1  UNL1       -0.0531
      6 C           6.3301   -0.7500    0.0000 C.3     1  UNL1       -0.0531
      7 C          11.5263   -0.7500    0.0000 C.3     1  UNL1       -0.0531
      8 C           5.4641   -0.2500    0.0000 C.3     1  UNL1       -0.0531
      9 C          12.3923   -0.2500    0.0000 C.3     1  UNL1       -0.0530
     10 C           4.5981   -0.7500    0.0000 C.3     1  UNL1       -0.0531
     11 C          13.2583   -0.7500    0.0000 C.3     1  UNL1       -0.0522
     12 C           3.7320   -0.2500    0.0000 C.3     1  UNL1       -0.0533
     13 C          14.1244   -0.2500    0.0000 C.3     1  UNL1       -0.0422
     14 C           2.8660   -0.7500    0.0000 C.3     1  UNL1       -0.0559
     15 C          14.9904   -0.7500    0.0000 C.3     1  UNL1        0.0091
     16 C           2.0000   -0.2500    0.0000 C.3     1  UNL1       -0.0653
     17 C          15.8564   -0.2500    0.0000 C.1     1  UNL1       -0.1022
     18 C          16.7224    0.2500    0.0000 C.1     1  UNL1       -0.1025
     19 C          17.5885    0.7500    0.0000 C.3     1  UNL1        0.0063
     20 C          18.4545    0.2500    0.0000 C.3     1  UNL1       -0.0543
     21 H           9.3267    0.2249    0.0000 H       1  UNL1        0.0265
     22 H           8.5297    0.2249    0.0000 H       1  UNL1        0.0265
     23 H           7.6636   -1.2250    0.0000 H       1  UNL1        0.0265
     24 H           8.4607   -1.2250    0.0000 H       1  UNL1        0.0265
     25 H           9.3957   -1.2250    0.0000 H       1  UNL1        0.0265
     26 H          10.1928   -1.2250    0.0000 H       1  UNL1        0.0265
     27 H           7.5947    0.2249    0.0000 H       1  UNL1        0.0265
     28 H           6.7976    0.2249    0.0000 H       1  UNL1        0.0265
     29 H          11.0588    0.2249    0.0000 H       1  UNL1        0.0265
     30 H          10.2617    0.2249    0.0000 H       1  UNL1        0.0265
     31 H           5.9316   -1.2250    0.0000 H       1  UNL1        0.0265
     32 H           6.7287   -1.2250    0.0000 H       1  UNL1        0.0265
     33 H          11.1278   -1.2250    0.0000 H       1  UNL1        0.0265
     34 H          11.9248   -1.2250    0.0000 H       1  UNL1        0.0265
     35 H           5.8626    0.2249    0.0000 H       1  UNL1        0.0265
     36 H           5.0656    0.2249    0.0000 H       1  UNL1        0.0265
     37 H          12.7908    0.2249    0.0000 H       1  UNL1        0.0265
     38 H          11.9938    0.2249    0.0000 H       1  UNL1        0.0265
     39 H           4.1996   -1.2250    0.0000 H       1  UNL1        0.0265
     40 H           4.9966   -1.2250    0.0000 H       1  UNL1        0.0265
     41 H          12.8598   -1.2250    0.0000 H       1  UNL1        0.0266
     42 H          13.6569   -1.2250    0.0000 H       1  UNL1        0.0266
     43 H           4.1306    0.2249    0.0000 H       1  UNL1        0.0265
     44 H           3.3335    0.2249    0.0000 H       1  UNL1        0.0265
     45 H          14.5229    0.2249    0.0000 H       1  UNL1        0.0274
     46 H          13.7258    0.2249    0.0000 H       1  UNL1        0.0274
     47 H           2.4675   -1.2250    0.0000 H       1  UNL1        0.0263
     48 H           3.2646   -1.2250    0.0000 H       1  UNL1        0.0263
     49 H          14.5919   -1.2250    0.0000 H       1  UNL1        0.0397
     50 H          15.3889   -1.2250    0.0000 H       1  UNL1        0.0397
     51 H           2.3100    0.2869    0.0000 H       1  UNL1        0.0230
     52 H           1.4631    0.0600    0.0000 H       1  UNL1        0.0230
     53 H           1.6900   -0.7869    0.0000 H       1  UNL1        0.0230
     54 H          17.9870    1.2250    0.0000 H       1  UNL1        0.0395
     55 H          17.1899    1.2250    0.0000 H       1  UNL1        0.0395
     56 H          18.1445   -0.2869    0.0000 H       1  UNL1        0.0239
     57 H          18.9914   -0.0600    0.0000 H       1  UNL1        0.0239
     58 H          18.7645    0.7869    0.0000 H       1  UNL1        0.0239
@<TRIPOS>BOND
     1     1     2    1
     2     1     3    1
     3     1    21    1
     4     1    22    1
     5     2     4    1
     6     2    23    1
     7     2    24    1
     8     3     5    1
     9     3    25    1
    10     3    26    1
    11     4     6    1
    12     4    27    1
    13     4    28    1
    14     5     7    1
    15     5    29    1
    16     5    30    1
    17     6     8    1
    18     6    31    1
    19     6    32    1
    20     7     9    1
    21     7    33    1
    22     7    34    1
    23     8    10    1
    24     8    35    1
    25     8    36    1
    26     9    11    1
    27     9    37    1
    28     9    38    1
    29    10    12    1
    30    10    39    1
    31    10    40    1
    32    11    13    1
    33    11    41    1
    34    11    42    1
    35    12    14    1
    36    12    43    1
    37    12    44    1
    38    13    15    1
    39    13    45    1
    40    13    46    1
    41    14    16    1
    42    14    47    1
    43    14    48    1
    44    15    17    1
    45    15    49    1
    46    15    50    1
    47    16    51    1
    48    16    52    1
    49    16    53    1
    50    17    18    3
    51    18    19    1
    52    19    20    1
    53    19    54    1
    54    19    55    1
    55    20    56    1
    56    20    57    1
    57    20    58    1
