@<TRIPOS>MOLECULE
IMPHY012558
 51 53 0 0 0
SMALL
GASTEIGER

@<TRIPOS>ATOM
      1 O           5.1350   -0.5950    0.0000 O.3     1  UNL1       -0.3313
      2 O           6.8671   -0.5950    0.0000 O.3     1  UNL1       -0.4600
      3 O           5.1350   -3.5950    0.0000 O.3     1  UNL1       -0.3864
      4 O           3.4030   -2.5950    0.0000 O.3     1  UNL1       -0.3865
      5 O           6.8671   -2.5950    0.0000 O.3     1  UNL1       -0.3829
      6 O           2.5369   -1.0950    0.0000 O.3     1  UNL1       -0.3924
      7 O           9.4651    0.9050    0.0000 O.3     1  UNL1       -0.4563
      8 O           6.8671    3.4050    0.0000 O.3     1  UNL1       -0.5067
      9 O           8.5991   -0.5950    0.0000 O.2     1  UNL1       -0.2448
     10 C           5.1350   -2.5950    0.0000 C.3     1  UNL1        0.1152
     11 C           4.2690   -2.0950    0.0000 C.3     1  UNL1        0.1120
     12 C           6.0010   -2.0950    0.0000 C.3     1  UNL1        0.1454
     13 C           4.2690   -1.0950    0.0000 C.3     1  UNL1        0.1140
     14 C           6.0010   -1.0950    0.0000 C.3     1  UNL1        0.2308
     15 C           3.4030   -0.5950    0.0000 C.3     1  UNL1        0.0731
     16 C           6.8671    0.4050    0.0000 C.ar    1  UNL1        0.1382
     17 C           7.7331    0.9050    0.0000 C.ar    1  UNL1        0.1041
     18 C           6.0010    0.9050    0.0000 C.ar    1  UNL1       -0.0156
     19 C           7.7331    1.9050    0.0000 C.ar    1  UNL1       -0.0027
     20 C           6.0010    1.9050    0.0000 C.ar    1  UNL1       -0.0167
     21 C           8.5991    0.4050    0.0000 C.2     1  UNL1        0.3432
     22 C           6.8671    2.4050    0.0000 C.ar    1  UNL1        0.1179
     23 C           9.4651    1.9050    0.0000 C.3     1  UNL1        0.1179
     24 C          10.3312    2.4050    0.0000 C.ar    1  UNL1       -0.0103
     25 C          10.3312    3.4050    0.0000 C.ar    1  UNL1       -0.0554
     26 C          11.1972    1.9050    0.0000 C.ar    1  UNL1       -0.0554
     27 C          11.1972    3.9050    0.0000 C.ar    1  UNL1       -0.0614
     28 C          12.0632    2.4050    0.0000 C.ar    1  UNL1       -0.0614
     29 C          12.0632    3.4050    0.0000 C.ar    1  UNL1       -0.0617
     30 H           4.5981   -2.9050    0.0000 H       1  UNL1        0.0648
     31 H           4.2690   -2.7150    0.0000 H       1  UNL1        0.0647
     32 H           6.0010   -2.7150    0.0000 H       1  UNL1        0.0683
     33 H           4.2690   -0.4750    0.0000 H       1  UNL1        0.0647
     34 H           6.0010   -0.4750    0.0000 H       1  UNL1        0.1084
     35 H           3.8015   -0.1201    0.0000 H       1  UNL1        0.0584
     36 H           3.0044   -0.1201    0.0000 H       1  UNL1        0.0584
     37 H           4.5981   -3.9050    0.0000 H       1  UNL1        0.2100
     38 H           3.4030   -3.2150    0.0000 H       1  UNL1        0.2100
     39 H           6.8671   -3.2150    0.0000 H       1  UNL1        0.2102
     40 H           2.0000   -0.7850    0.0000 H       1  UNL1        0.2095
     41 H           5.4641    0.5950    0.0000 H       1  UNL1        0.0655
     42 H           8.2700    2.2150    0.0000 H       1  UNL1        0.0663
     43 H           5.4641    2.2150    0.0000 H       1  UNL1        0.0655
     44 H           9.2531    2.4876    0.0000 H       1  UNL1        0.0749
     45 H           8.8546    1.7973    0.0000 H       1  UNL1        0.0749
     46 H           6.3301    3.7150    0.0000 H       1  UNL1        0.2921
     47 H           9.7942    3.7150    0.0000 H       1  UNL1        0.0621
     48 H          11.1972    1.2850    0.0000 H       1  UNL1        0.0621
     49 H          11.1972    4.5250    0.0000 H       1  UNL1        0.0618
     50 H          12.6002    2.0950    0.0000 H       1  UNL1        0.0618
     51 H          12.6002    3.7150    0.0000 H       1  UNL1        0.0618
@<TRIPOS>BOND
     1     1    13    1
     2     1    14    1
     3    14     2    1
     4     2    16    1
     5    10     3    1
     6     3    37    1
     7    11     4    1
     8     4    38    1
     9    12     5    1
    10     5    39    1
    11     6    15    1
    12     6    40    1
    13     7    21    1
    14     7    23    1
    15     8    22    1
    16     8    46    1
    17     9    21    2
    18    10    11    1
    19    10    12    1
    20    10    30    1
    21    11    13    1
    22    11    31    1
    23    12    14    1
    24    12    32    1
    25    13    15    1
    26    13    33    1
    27    14    34    1
    28    15    35    1
    29    15    36    1
    30    16    17   ar
    31    16    18   ar
    32    17    19   ar
    33    17    21    1
    34    18    20   ar
    35    18    41    1
    36    19    22   ar
    37    19    42    1
    38    20    22   ar
    39    20    43    1
    40    23    24    1
    41    23    44    1
    42    23    45    1
    43    24    25   ar
    44    24    26   ar
    45    25    27   ar
    46    25    47    1
    47    26    28   ar
    48    26    48    1
    49    27    29   ar
    50    27    49    1
    51    28    29   ar
    52    28    50    1
    53    29    51    1
