@<TRIPOS>MOLECULE
IMPHY016555
 35 35 0 0 0
SMALL
GASTEIGER

@<TRIPOS>ATOM
      1 O           3.7320    1.0000    0.0000 O.3     1  UNL1       -0.4569
      2 O           5.4641    1.0000    0.0000 O.2     1  UNL1       -0.2508
      3 C           4.5981   -1.5000    0.0000 C.3     1  UNL1       -0.0133
      4 C           4.5981   -0.5000    0.0000 C.3     1  UNL1       -0.0049
      5 C           3.7320    0.0000    0.0000 C.3     1  UNL1        0.1244
      6 C           3.7320   -2.0000    0.0000 C.3     1  UNL1       -0.0278
      7 C           2.8660   -0.5000    0.0000 C.2     1  UNL1       -0.0365
      8 C           2.8660   -1.5000    0.0000 C.2     1  UNL1       -0.0810
      9 C           5.4641   -2.0000    0.0000 C.2     1  UNL1       -0.0762
     10 C           2.0000    0.0000    0.0000 C.3     1  UNL1       -0.0403
     11 C           5.4641   -3.0000    0.0000 C.3     1  UNL1       -0.0438
     12 C           6.3301   -1.5000    0.0000 C.2     1  UNL1       -0.0994
     13 C           4.5981    1.5000    0.0000 C.2     1  UNL1        0.3074
     14 C           4.5981    2.5000    0.0000 C.3     1  UNL1        0.0421
     15 C           5.4641    3.0000    0.0000 C.3     1  UNL1       -0.0552
     16 H           4.5981   -2.1200    0.0000 H       1  UNL1        0.0350
     17 H           5.2087   -0.6077    0.0000 H       1  UNL1        0.0310
     18 H           4.8101    0.0826    0.0000 H       1  UNL1        0.0310
     19 H           4.2690    0.3100    0.0000 H       1  UNL1        0.0782
     20 H           3.3335   -2.4750    0.0000 H       1  UNL1        0.0313
     21 H           4.1306   -2.4750    0.0000 H       1  UNL1        0.0313
     22 H           2.3291   -1.8100    0.0000 H       1  UNL1        0.0573
     23 H           2.3100    0.5369    0.0000 H       1  UNL1        0.0276
     24 H           1.4631    0.3100    0.0000 H       1  UNL1        0.0276
     25 H           1.6900   -0.5369    0.0000 H       1  UNL1        0.0276
     26 H           4.8441   -3.0000    0.0000 H       1  UNL1        0.0274
     27 H           5.4641   -3.6200    0.0000 H       1  UNL1        0.0274
     28 H           6.0841   -3.0000    0.0000 H       1  UNL1        0.0274
     29 H           6.8671   -1.8100    0.0000 H       1  UNL1        0.0534
     30 H           6.3301   -0.8800    0.0000 H       1  UNL1        0.0534
     31 H           4.3860    3.0826    0.0000 H       1  UNL1        0.0375
     32 H           3.9875    2.3923    0.0000 H       1  UNL1        0.0375
     33 H           5.7741    2.4631    0.0000 H       1  UNL1        0.0235
     34 H           6.0010    3.3100    0.0000 H       1  UNL1        0.0235
     35 H           5.1541    3.5369    0.0000 H       1  UNL1        0.0235
@<TRIPOS>BOND
     1     1     5    1
     2     1    13    1
     3     2    13    2
     4     3     4    1
     5     3     6    1
     6     3     9    1
     7     3    16    1
     8     4     5    1
     9     4    17    1
    10     4    18    1
    11     5     7    1
    12     5    19    1
    13     6     8    1
    14     6    20    1
    15     6    21    1
    16     7     8    2
    17     7    10    1
    18     8    22    1
    19     9    11    1
    20     9    12    2
    21    10    23    1
    22    10    24    1
    23    10    25    1
    24    11    26    1
    25    11    27    1
    26    11    28    1
    27    12    29    1
    28    12    30    1
    29    13    14    1
    30    14    15    1
    31    14    31    1
    32    14    32    1
    33    15    33    1
    34    15    34    1
    35    15    35    1
