@<TRIPOS>MOLECULE
IMPHY017873
 26 28 0 0 0
SMALL
GASTEIGER

@<TRIPOS>ATOM
      1 O           2.0000   -1.9993    0.0000 O.3     1  UNL1       -0.3643
      2 O           3.1423    2.1197    0.0000 O.2     1  UNL1       -0.2967
      3 C           2.8991   -1.5605    0.0000 C.3     1  UNL1        0.1032
      4 C           4.1201   -0.6949    0.0000 C.3     1  UNL1        0.0547
      5 C           5.5190   -0.6860    0.0000 C.3     1  UNL1       -0.0131
      6 C           4.3789    0.2711    0.0000 C.3     1  UNL1        0.0262
      7 C           2.0700   -1.0013    0.0000 C.3     1  UNL1        0.0895
      8 C           2.3457   -0.0401    0.0000 C.3     1  UNL1       -0.0138
      9 C           3.6423    1.2537    0.0000 C.2     1  UNL1        0.1434
     10 C           3.7281   -2.1197    0.0000 C.3     1  UNL1       -0.0327
     11 C           6.3851   -0.1860    0.0000 C.3     1  UNL1       -0.0584
     12 C           6.0190   -1.5521    0.0000 C.3     1  UNL1       -0.0584
     13 H           4.3101   -1.2850    0.0000 H       1  UNL1        0.0412
     14 H           4.8292    0.6972    0.0000 H       1  UNL1        0.0384
     15 H           1.4595   -0.8936    0.0000 H       1  UNL1        0.0625
     16 H           2.3406    0.5799    0.0000 H       1  UNL1        0.0298
     17 H           1.7314    0.0437    0.0000 H       1  UNL1        0.0298
     18 H           3.3814   -2.6337    0.0000 H       1  UNL1        0.0258
     19 H           4.2421   -2.4664    0.0000 H       1  UNL1        0.0258
     20 H           4.0748   -1.6057    0.0000 H       1  UNL1        0.0258
     21 H           6.6951   -0.7230    0.0000 H       1  UNL1        0.0235
     22 H           6.9220    0.1240    0.0000 H       1  UNL1        0.0235
     23 H           6.0751    0.3509    0.0000 H       1  UNL1        0.0235
     24 H           5.4821   -1.8621    0.0000 H       1  UNL1        0.0235
     25 H           6.3290   -2.0890    0.0000 H       1  UNL1        0.0235
     26 H           6.5560   -1.2421    0.0000 H       1  UNL1        0.0235
@<TRIPOS>BOND
     1     1     3    1
     2     1     7    1
     3     2     9    2
     4     3     4    1
     5     3     7    1
     6     3    10    1
     7     4     5    1
     8     4     9    1
     9     4    13    1
    10     5     6    1
    11     5    11    1
    12     5    12    1
    13     6     8    1
    14     6     9    1
    15     6    14    1
    16     7     8    1
    17     7    15    1
    18     8    16    1
    19     8    17    1
    20    10    18    1
    21    10    19    1
    22    10    20    1
    23    11    21    1
    24    11    22    1
    25    11    23    1
    26    12    24    1
    27    12    25    1
    28    12    26    1
