@<TRIPOS>MOLECULE
IMPHY005416
 51 53 0 0 0
SMALL
GASTEIGER

@<TRIPOS>ATOM
      1 O           5.1350   -0.1550    0.0000 O.3     1  UNL1       -0.3313
      2 O           6.8671   -0.1550    0.0000 O.3     1  UNL1       -0.4600
      3 O           5.1350   -3.1550    0.0000 O.3     1  UNL1       -0.3864
      4 O           3.4030   -2.1550    0.0000 O.3     1  UNL1       -0.3865
      5 O           6.8671   -2.1550    0.0000 O.3     1  UNL1       -0.3829
      6 O           2.5369   -0.6550    0.0000 O.3     1  UNL1       -0.3924
      7 O           8.5991   -0.1550    0.0000 O.2     1  UNL1       -0.4218
      8 O           5.1350    2.8450    0.0000 O.3     1  UNL1       -0.5066
      9 O          11.1972    1.3450    0.0000 O.3     1  UNL1       -0.4948
     10 O           9.4651   -1.6550    0.0000 O.2     1  UNL1       -0.2451
     11 C           5.1350   -2.1550    0.0000 C.3     1  UNL1        0.1152
     12 C           4.2690   -1.6550    0.0000 C.3     1  UNL1        0.1120
     13 C           6.0010   -1.6550    0.0000 C.3     1  UNL1        0.1454
     14 C           4.2690   -0.6550    0.0000 C.3     1  UNL1        0.1140
     15 C           6.0010   -0.6550    0.0000 C.3     1  UNL1        0.2308
     16 C           3.4030   -0.1550    0.0000 C.3     1  UNL1        0.0731
     17 C           6.8671    0.8450    0.0000 C.ar    1  UNL1        0.1383
     18 C           7.7331    1.3450    0.0000 C.ar    1  UNL1        0.0623
     19 C           6.0010    1.3450    0.0000 C.ar    1  UNL1        0.0224
     20 C           7.7331    2.3450    0.0000 C.ar    1  UNL1       -0.0328
     21 C           8.5991    0.8450    0.0000 C.ar    1  UNL1        0.1463
     22 C           6.0010    2.3450    0.0000 C.ar    1  UNL1        0.1206
     23 C           6.8671    2.8450    0.0000 C.ar    1  UNL1       -0.0164
     24 C           8.5991    2.8450    0.0000 C.3     1  UNL1       -0.0388
     25 C           9.4651    1.3450    0.0000 C.ar    1  UNL1        0.0234
     26 C          10.3312    0.8450    0.0000 C.ar    1  UNL1        0.1304
     27 C           9.4651   -0.6550    0.0000 C.ar    1  UNL1        0.3407
     28 C          10.3312   -0.1550    0.0000 C.ar    1  UNL1        0.0646
     29 C          12.0632    0.8450    0.0000 C.3     1  UNL1        0.0788
     30 H           5.6720   -2.4650    0.0000 H       1  UNL1        0.0648
     31 H           4.2690   -2.2750    0.0000 H       1  UNL1        0.0647
     32 H           6.5380   -1.3450    0.0000 H       1  UNL1        0.0683
     33 H           4.2690   -0.0350    0.0000 H       1  UNL1        0.0647
     34 H           6.0010   -0.0350    0.0000 H       1  UNL1        0.1084
     35 H           3.8015    0.3199    0.0000 H       1  UNL1        0.0584
     36 H           3.0044    0.3199    0.0000 H       1  UNL1        0.0584
     37 H           4.5981   -3.4650    0.0000 H       1  UNL1        0.2100
     38 H           3.4030   -2.7750    0.0000 H       1  UNL1        0.2100
     39 H           6.8671   -2.7750    0.0000 H       1  UNL1        0.2102
     40 H           2.0000   -0.3450    0.0000 H       1  UNL1        0.2095
     41 H           5.4641    1.0350    0.0000 H       1  UNL1        0.0691
     42 H           6.8671    3.4650    0.0000 H       1  UNL1        0.0657
     43 H           8.9091    2.3081    0.0000 H       1  UNL1        0.0278
     44 H           9.1360    3.1550    0.0000 H       1  UNL1        0.0278
     45 H           8.2891    3.3819    0.0000 H       1  UNL1        0.0278
     46 H           9.4651    1.9650    0.0000 H       1  UNL1        0.0691
     47 H           5.1350    3.4650    0.0000 H       1  UNL1        0.2921
     48 H          10.8681   -0.4650    0.0000 H       1  UNL1        0.0726
     49 H          11.7532    0.3081    0.0000 H       1  UNL1        0.0660
     50 H          12.6002    0.5350    0.0000 H       1  UNL1        0.0660
     51 H          12.3732    1.3819    0.0000 H       1  UNL1        0.0660
@<TRIPOS>BOND
     1     1    14    1
     2     1    15    1
     3    15     2    1
     4     2    17    1
     5    11     3    1
     6     3    37    1
     7    12     4    1
     8     4    38    1
     9    13     5    1
    10     5    39    1
    11     6    16    1
    12     6    40    1
    13     7    21   ar
    14     7    27   ar
    15     8    22    1
    16     8    47    1
    17     9    26    1
    18     9    29    1
    19    10    27    2
    20    11    12    1
    21    11    13    1
    22    11    30    1
    23    12    14    1
    24    12    31    1
    25    13    15    1
    26    13    32    1
    27    14    16    1
    28    14    33    1
    29    15    34    1
    30    16    35    1
    31    16    36    1
    32    17    18   ar
    33    17    19   ar
    34    18    20   ar
    35    18    21    1
    36    19    22   ar
    37    19    41    1
    38    20    23   ar
    39    20    24    1
    40    21    25   ar
    41    22    23   ar
    42    23    42    1
    43    24    43    1
    44    24    44    1
    45    24    45    1
    46    25    26   ar
    47    25    46    1
    48    26    28   ar
    49    27    28   ar
    50    28    48    1
    51    29    49    1
    52    29    50    1
    53    29    51    1
