@<TRIPOS>MOLECULE
IMPHY000609
 24 24 0 0 0
SMALL
GASTEIGER

@<TRIPOS>ATOM
      1 O           3.7320    2.1900    0.0000 O.3     1  UNL1       -0.4771
      2 O           2.0000    2.1900    0.0000 O.2     1  UNL1       -0.2451
      3 C           2.8660   -2.3100    0.0000 C.3     1  UNL1       -0.0215
      4 C           2.8660   -1.3100    0.0000 C.ar    1  UNL1       -0.0448
      5 C           2.0000   -2.8100    0.0000 C.3     1  UNL1       -0.0587
      6 C           3.7320   -2.8100    0.0000 C.3     1  UNL1       -0.0587
      7 C           3.7320   -0.8100    0.0000 C.ar    1  UNL1       -0.0575
      8 C           2.0000   -0.8100    0.0000 C.ar    1  UNL1       -0.0575
      9 C           3.7320    0.1900    0.0000 C.ar    1  UNL1       -0.0475
     10 C           2.0000    0.1900    0.0000 C.ar    1  UNL1       -0.0475
     11 C           2.8660    0.6900    0.0000 C.ar    1  UNL1        0.0588
     12 C           2.8660    1.6900    0.0000 C.2     1  UNL1        0.3368
     13 H           2.8660   -2.9300    0.0000 H       1  UNL1        0.0343
     14 H           1.6900   -2.2731    0.0000 H       1  UNL1        0.0235
     15 H           1.4631   -3.1200    0.0000 H       1  UNL1        0.0235
     16 H           2.3100   -3.3469    0.0000 H       1  UNL1        0.0235
     17 H           3.4220   -3.3469    0.0000 H       1  UNL1        0.0235
     18 H           4.2690   -3.1200    0.0000 H       1  UNL1        0.0235
     19 H           4.0420   -2.2731    0.0000 H       1  UNL1        0.0235
     20 H           4.2690   -1.1200    0.0000 H       1  UNL1        0.0621
     21 H           1.4631   -1.1200    0.0000 H       1  UNL1        0.0621
     22 H           4.2690    0.5000    0.0000 H       1  UNL1        0.0626
     23 H           1.4631    0.5000    0.0000 H       1  UNL1        0.0626
     24 H           3.7320    2.8100    0.0000 H       1  UNL1        0.2954
@<TRIPOS>BOND
     1     1    12    1
     2     1    24    1
     3     2    12    2
     4     3     4    1
     5     3     5    1
     6     3     6    1
     7     3    13    1
     8     4     7   ar
     9     4     8   ar
    10     5    14    1
    11     5    15    1
    12     5    16    1
    13     6    17    1
    14     6    18    1
    15     6    19    1
    16     7     9   ar
    17     7    20    1
    18     8    10   ar
    19     8    21    1
    20     9    11   ar
    21     9    22    1
    22    10    11   ar
    23    10    23    1
    24    11    12    1
