@<TRIPOS>MOLECULE
IMPHY015264
 58 57 0 0 0
SMALL
GASTEIGER

@<TRIPOS>ATOM
      1 O           5.1350   -0.2500    0.0000 O.3     1  UNL1       -0.3775
      2 O           2.5369    0.2500    0.0000 O.3     1  UNL1       -0.3927
      3 C          12.0632   -0.2500    0.0000 C.3     1  UNL1       -0.0531
      4 C          12.9292    0.2500    0.0000 C.3     1  UNL1       -0.0531
      5 C          11.1972    0.2500    0.0000 C.3     1  UNL1       -0.0531
      6 C          13.7953   -0.2500    0.0000 C.3     1  UNL1       -0.0531
      7 C          10.3312   -0.2500    0.0000 C.3     1  UNL1       -0.0531
      8 C          14.6613    0.2500    0.0000 C.3     1  UNL1       -0.0531
      9 C           9.4651    0.2500    0.0000 C.3     1  UNL1       -0.0531
     10 C          15.5273   -0.2500    0.0000 C.3     1  UNL1       -0.0531
     11 C           8.5991   -0.2500    0.0000 C.3     1  UNL1       -0.0530
     12 C          16.3933    0.2500    0.0000 C.3     1  UNL1       -0.0531
     13 C           7.7331    0.2500    0.0000 C.3     1  UNL1       -0.0510
     14 C          17.2594   -0.2500    0.0000 C.3     1  UNL1       -0.0533
     15 C           6.8671   -0.2500    0.0000 C.3     1  UNL1       -0.0295
     16 C          18.1254    0.2500    0.0000 C.3     1  UNL1       -0.0559
     17 C           6.0010    0.2500    0.0000 C.3     1  UNL1        0.0478
     18 C          18.9914   -0.2500    0.0000 C.3     1  UNL1       -0.0653
     19 C           4.2690    0.2500    0.0000 C.3     1  UNL1        0.0707
     20 C           3.4030   -0.2500    0.0000 C.3     1  UNL1        0.0676
     21 H          11.6647   -0.7249    0.0000 H       1  UNL1        0.0265
     22 H          12.4617   -0.7249    0.0000 H       1  UNL1        0.0265
     23 H          13.3278    0.7249    0.0000 H       1  UNL1        0.0265
     24 H          12.5307    0.7249    0.0000 H       1  UNL1        0.0265
     25 H          11.5957    0.7249    0.0000 H       1  UNL1        0.0265
     26 H          10.7987    0.7249    0.0000 H       1  UNL1        0.0265
     27 H          13.3967   -0.7249    0.0000 H       1  UNL1        0.0265
     28 H          14.1938   -0.7249    0.0000 H       1  UNL1        0.0265
     29 H           9.9326   -0.7249    0.0000 H       1  UNL1        0.0265
     30 H          10.7297   -0.7249    0.0000 H       1  UNL1        0.0265
     31 H          15.0598    0.7249    0.0000 H       1  UNL1        0.0265
     32 H          14.2628    0.7249    0.0000 H       1  UNL1        0.0265
     33 H           9.8637    0.7249    0.0000 H       1  UNL1        0.0265
     34 H           9.0666    0.7249    0.0000 H       1  UNL1        0.0265
     35 H          15.1288   -0.7249    0.0000 H       1  UNL1        0.0265
     36 H          15.9258   -0.7249    0.0000 H       1  UNL1        0.0265
     37 H           8.2006   -0.7249    0.0000 H       1  UNL1        0.0265
     38 H           8.9976   -0.7249    0.0000 H       1  UNL1        0.0265
     39 H          16.7919    0.7249    0.0000 H       1  UNL1        0.0265
     40 H          15.9948    0.7249    0.0000 H       1  UNL1        0.0265
     41 H           8.1316    0.7249    0.0000 H       1  UNL1        0.0266
     42 H           7.3346    0.7249    0.0000 H       1  UNL1        0.0266
     43 H          16.8608   -0.7249    0.0000 H       1  UNL1        0.0265
     44 H          17.6579   -0.7249    0.0000 H       1  UNL1        0.0265
     45 H           6.4685   -0.7249    0.0000 H       1  UNL1        0.0287
     46 H           7.2656   -0.7249    0.0000 H       1  UNL1        0.0287
     47 H          18.5239    0.7249    0.0000 H       1  UNL1        0.0263
     48 H          17.7269    0.7249    0.0000 H       1  UNL1        0.0263
     49 H           6.3996    0.7249    0.0000 H       1  UNL1        0.0560
     50 H           5.6025    0.7249    0.0000 H       1  UNL1        0.0560
     51 H          18.6814   -0.7869    0.0000 H       1  UNL1        0.0230
     52 H          19.5284   -0.5600    0.0000 H       1  UNL1        0.0230
     53 H          19.3014    0.2869    0.0000 H       1  UNL1        0.0230
     54 H           4.6675    0.7249    0.0000 H       1  UNL1        0.0583
     55 H           3.8705    0.7249    0.0000 H       1  UNL1        0.0583
     56 H           3.0044   -0.7249    0.0000 H       1  UNL1        0.0580
     57 H           3.8015   -0.7249    0.0000 H       1  UNL1        0.0580
     58 H           2.0000   -0.0600    0.0000 H       1  UNL1        0.2095
@<TRIPOS>BOND
     1     1    17    1
     2     1    19    1
     3     2    20    1
     4     2    58    1
     5     3     4    1
     6     3     5    1
     7     3    21    1
     8     3    22    1
     9     4     6    1
    10     4    23    1
    11     4    24    1
    12     5     7    1
    13     5    25    1
    14     5    26    1
    15     6     8    1
    16     6    27    1
    17     6    28    1
    18     7     9    1
    19     7    29    1
    20     7    30    1
    21     8    10    1
    22     8    31    1
    23     8    32    1
    24     9    11    1
    25     9    33    1
    26     9    34    1
    27    10    12    1
    28    10    35    1
    29    10    36    1
    30    11    13    1
    31    11    37    1
    32    11    38    1
    33    12    14    1
    34    12    39    1
    35    12    40    1
    36    13    15    1
    37    13    41    1
    38    13    42    1
    39    14    16    1
    40    14    43    1
    41    14    44    1
    42    15    17    1
    43    15    45    1
    44    15    46    1
    45    16    18    1
    46    16    47    1
    47    16    48    1
    48    17    49    1
    49    17    50    1
    50    18    51    1
    51    18    52    1
    52    18    53    1
    53    19    20    1
    54    19    54    1
    55    19    55    1
    56    20    56    1
    57    20    57    1
