@<TRIPOS>MOLECULE
IMPHY003271
 49 52 0 0 0
SMALL
GASTEIGER

@<TRIPOS>ATOM
      1 O           6.2455   -2.4234    0.0000 O.3     1  UNL1       -0.3769
      2 O           4.4455   -1.4442    0.0000 O.3     1  UNL1       -0.4544
      3 O           6.2237    1.6081    0.0000 O.3     1  UNL1       -0.3889
      4 O           9.7477   -0.4265    0.0000 O.3     1  UNL1       -0.3914
      5 O           7.9896    2.6459    0.0000 O.3     1  UNL1       -0.3891
      6 O           5.3631   -2.9580    0.0000 O.2     1  UNL1       -0.2475
      7 O           2.0000    0.4433    0.0000 O.2     1  UNL1       -0.4706
      8 C           6.2455   -0.4234    0.0000 C.3     1  UNL1        0.0164
      9 C           7.1115    0.0766    0.0000 C.3     1  UNL1        0.0013
     10 C           7.9775   -0.4234    0.0000 C.3     1  UNL1       -0.0089
     11 C           6.2455   -1.4234    0.0000 C.3     1  UNL1        0.1678
     12 C           7.0954    1.1181    0.0000 C.3     1  UNL1        0.0849
     13 C           7.9775   -1.4234    0.0000 C.3     1  UNL1       -0.0444
     14 C           7.1115   -1.9234    0.0000 C.3     1  UNL1       -0.0126
     15 C           5.3515    0.1113    0.0000 C.3     1  UNL1       -0.0024
     16 C           8.8875    0.0835    0.0000 C.3     1  UNL1        0.0608
     17 C           7.9935    1.6459    0.0000 C.3     1  UNL1        0.0837
     18 C           6.2455    0.5766    0.0000 C.3     1  UNL1       -0.0559
     19 C           8.8956    1.1251    0.0000 C.3     1  UNL1        0.0020
     20 C           4.4455   -0.4025    0.0000 C.3     1  UNL1        0.1316
     21 C           5.3515   -1.9580    0.0000 C.2     1  UNL1        0.3403
     22 C           3.5814    0.1008    0.0000 C.ar    1  UNL1        0.0304
     23 C           3.4807    1.0957    0.0000 C.ar    1  UNL1       -0.0172
     24 C           2.6663   -0.3024    0.0000 C.ar    1  UNL1        0.0983
     25 C           2.5033    1.3074    0.0000 C.ar    1  UNL1        0.0921
     26 H           7.8443    0.5073    0.0000 H       1  UNL1        0.0336
     27 H           8.7103   -0.8540    0.0000 H       1  UNL1        0.0329
     28 H           6.5627    0.8009    0.0000 H       1  UNL1        0.0622
     29 H           8.1896   -2.0060    0.0000 H       1  UNL1        0.0270
     30 H           8.5881   -1.3157    0.0000 H       1  UNL1        0.0270
     31 H           6.7130   -2.3983    0.0000 H       1  UNL1        0.0299
     32 H           7.5100   -2.3983    0.0000 H       1  UNL1        0.0299
     33 H           5.7561    0.5811    0.0000 H       1  UNL1        0.0311
     34 H           4.9579    0.5903    0.0000 H       1  UNL1        0.0311
     35 H           8.8792   -0.5365    0.0000 H       1  UNL1        0.0597
     36 H           7.4548    1.9528    0.0000 H       1  UNL1        0.0620
     37 H           6.8655    0.5766    0.0000 H       1  UNL1        0.0236
     38 H           6.2455    1.1966    0.0000 H       1  UNL1        0.0236
     39 H           5.6255    0.5766    0.0000 H       1  UNL1        0.0236
     40 H           9.5056    1.0143    0.0000 H       1  UNL1        0.0316
     41 H           9.1091    1.7071    0.0000 H       1  UNL1        0.0316
     42 H           3.9079   -0.7115    0.0000 H       1  UNL1        0.0786
     43 H           6.7824   -2.7334    0.0000 H       1  UNL1        0.2109
     44 H           6.2165    2.2280    0.0000 H       1  UNL1        0.2099
     45 H          10.2882   -0.1227    0.0000 H       1  UNL1        0.2098
     46 H           8.5254    2.9580    0.0000 H       1  UNL1        0.2099
     47 H           3.9430    1.5088    0.0000 H       1  UNL1        0.0653
     48 H           2.5350   -0.9084    0.0000 H       1  UNL1        0.1033
     49 H           2.2533    1.8748    0.0000 H       1  UNL1        0.1029
@<TRIPOS>BOND
     1     1    11    1
     2     1    43    1
     3     2    20    1
     4     2    21    1
     5    12     3    1
     6     3    44    1
     7    16     4    1
     8     4    45    1
     9    17     5    1
    10     5    46    1
    11     6    21    2
    12     7    24   ar
    13     7    25   ar
    14     8     9    1
    15     8    11    1
    16     8    15    1
    17     8    18    1
    18     9    10    1
    19     9    12    1
    20     9    26    1
    21    10    13    1
    22    10    16    1
    23    10    27    1
    24    11    14    1
    25    11    21    1
    26    12    17    1
    27    12    28    1
    28    13    14    1
    29    13    29    1
    30    13    30    1
    31    14    31    1
    32    14    32    1
    33    15    20    1
    34    15    33    1
    35    15    34    1
    36    16    19    1
    37    16    35    1
    38    17    19    1
    39    17    36    1
    40    18    37    1
    41    18    38    1
    42    18    39    1
    43    19    40    1
    44    19    41    1
    45    20    22    1
    46    20    42    1
    47    22    23   ar
    48    22    24   ar
    49    23    25   ar
    50    23    47    1
    51    24    48    1
    52    25    49    1
