@<TRIPOS>MOLECULE
IMPHY009272
 91 94 0 0 0
SMALL
GASTEIGER

@<TRIPOS>ATOM
      1 O           9.4651    1.0000    0.0000 O.3     1  UNL1       -0.3429
      2 O           7.7331    1.0000    0.0000 O.3     1  UNL1       -0.3456
      3 O          11.1972   -1.0000    0.0000 O.3     1  UNL1       -0.3456
      4 O           6.0010   -1.0000    0.0000 O.3     1  UNL1       -0.3429
      5 O          12.9292   -1.0000    0.0000 O.3     1  UNL1       -0.3429
      6 O          11.1972    2.0000    0.0000 O.3     1  UNL1       -0.3770
      7 O           7.7331   -2.0000    0.0000 O.3     1  UNL1       -0.3770
      8 O           4.2690   -1.0000    0.0000 O.3     1  UNL1       -0.3456
      9 O          14.6613    1.0000    0.0000 O.3     1  UNL1       -0.3459
     10 O          14.6613   -2.0000    0.0000 O.3     1  UNL1       -0.3770
     11 O           4.2690    2.0000    0.0000 O.3     1  UNL1       -0.3770
     12 O           2.5369    1.0000    0.0000 O.3     1  UNL1       -0.3867
     13 O          16.3933    1.0000    0.0000 O.3     1  UNL1       -0.3669
     14 C          10.3312    0.5000    0.0000 C.3     1  UNL1        0.1137
     15 C           6.8671   -0.5000    0.0000 C.3     1  UNL1        0.1137
     16 C          11.1972    1.0000    0.0000 C.3     1  UNL1        0.0915
     17 C           7.7331   -1.0000    0.0000 C.3     1  UNL1        0.0915
     18 C           8.5991    0.5000    0.0000 C.3     1  UNL1        0.1626
     19 C          10.3312   -0.5000    0.0000 C.3     1  UNL1        0.0875
     20 C           8.5991   -0.5000    0.0000 C.3     1  UNL1        0.0272
     21 C           6.8671    0.5000    0.0000 C.3     1  UNL1        0.0875
     22 C          12.0632    0.5000    0.0000 C.3     1  UNL1        0.0272
     23 C          12.0632   -0.5000    0.0000 C.3     1  UNL1        0.1626
     24 C          13.7953   -0.5000    0.0000 C.3     1  UNL1        0.1137
     25 C           5.1350   -0.5000    0.0000 C.3     1  UNL1        0.1626
     26 C          14.6613   -1.0000    0.0000 C.3     1  UNL1        0.0915
     27 C          13.7953    0.5000    0.0000 C.3     1  UNL1        0.0875
     28 C           5.1350    0.5000    0.0000 C.3     1  UNL1        0.0272
     29 C           4.2690    1.0000    0.0000 C.3     1  UNL1        0.0911
     30 C           3.4030    0.5000    0.0000 C.3     1  UNL1        0.1073
     31 C           3.4030   -0.5000    0.0000 C.3     1  UNL1        0.0871
     32 C          15.5273   -0.5000    0.0000 C.3     1  UNL1        0.0270
     33 C           9.4651   -1.0000    0.0000 C.3     1  UNL1       -0.0361
     34 C           6.0010    1.0000    0.0000 C.3     1  UNL1       -0.0361
     35 C          15.5273    0.5000    0.0000 C.3     1  UNL1        0.1590
     36 C          12.9292    1.0000    0.0000 C.3     1  UNL1       -0.0361
     37 C           2.5369   -1.0000    0.0000 C.3     1  UNL1       -0.0361
     38 C          12.0632    2.5000    0.0000 C.3     1  UNL1        0.0369
     39 C           8.5991   -2.5000    0.0000 C.3     1  UNL1        0.0369
     40 C          15.5273   -2.5000    0.0000 C.3     1  UNL1        0.0369
     41 C           3.4030    2.5000    0.0000 C.3     1  UNL1        0.0369
     42 H           9.7942    0.1900    0.0000 H       1  UNL1        0.0649
     43 H           6.3301   -0.1900    0.0000 H       1  UNL1        0.0649
     44 H          11.7341    1.3100    0.0000 H       1  UNL1        0.0624
     45 H           8.2700   -1.3100    0.0000 H       1  UNL1        0.0624
     46 H           8.5991    1.1200    0.0000 H       1  UNL1        0.0910
     47 H          10.3312   -1.1200    0.0000 H       1  UNL1        0.0621
     48 H           8.8112   -1.0826    0.0000 H       1  UNL1        0.0340
     49 H           9.2097   -0.3923    0.0000 H       1  UNL1        0.0340
     50 H           6.8671    1.1200    0.0000 H       1  UNL1        0.0621
     51 H          12.6738    0.3923    0.0000 H       1  UNL1        0.0340
     52 H          12.2753    1.0826    0.0000 H       1  UNL1        0.0340
     53 H          12.0632   -1.1200    0.0000 H       1  UNL1        0.0910
     54 H          13.2583   -0.1900    0.0000 H       1  UNL1        0.0649
     55 H           5.1350   -1.1200    0.0000 H       1  UNL1        0.0910
     56 H          14.1244   -1.3100    0.0000 H       1  UNL1        0.0624
     57 H          13.7953    1.1200    0.0000 H       1  UNL1        0.0621
     58 H           5.7456    0.3923    0.0000 H       1  UNL1        0.0340
     59 H           5.3471    1.0826    0.0000 H       1  UNL1        0.0340
     60 H           4.8059    1.3100    0.0000 H       1  UNL1        0.0624
     61 H           3.4030    1.1200    0.0000 H       1  UNL1        0.0645
     62 H           3.4030   -1.1200    0.0000 H       1  UNL1        0.0621
     63 H          15.7394   -1.0826    0.0000 H       1  UNL1        0.0340
     64 H          16.1379   -0.3923    0.0000 H       1  UNL1        0.0340
     65 H           9.1551   -0.4631    0.0000 H       1  UNL1        0.0255
     66 H           8.9282   -1.3100    0.0000 H       1  UNL1        0.0255
     67 H           9.7751   -1.5369    0.0000 H       1  UNL1        0.0255
     68 H           6.3110    1.5369    0.0000 H       1  UNL1        0.0255
     69 H           5.4641    1.3100    0.0000 H       1  UNL1        0.0255
     70 H           5.6910    0.4631    0.0000 H       1  UNL1        0.0255
     71 H          15.5273    1.1200    0.0000 H       1  UNL1        0.0908
     72 H          13.2392    1.5369    0.0000 H       1  UNL1        0.0255
     73 H          12.3923    1.3100    0.0000 H       1  UNL1        0.0255
     74 H          12.6192    0.4631    0.0000 H       1  UNL1        0.0255
     75 H           2.2269   -0.4631    0.0000 H       1  UNL1        0.0255
     76 H           2.0000   -1.3100    0.0000 H       1  UNL1        0.0255
     77 H           2.8469   -1.5369    0.0000 H       1  UNL1        0.0255
     78 H          12.3732    1.9631    0.0000 H       1  UNL1        0.0524
     79 H          12.6002    2.8100    0.0000 H       1  UNL1        0.0524
     80 H          11.7532    3.0369    0.0000 H       1  UNL1        0.0524
     81 H           8.2891   -3.0369    0.0000 H       1  UNL1        0.0524
     82 H           9.1360   -2.8100    0.0000 H       1  UNL1        0.0524
     83 H           8.9091   -1.9631    0.0000 H       1  UNL1        0.0524
     84 H           2.0000    0.6900    0.0000 H       1  UNL1        0.2100
     85 H          16.9303    0.6900    0.0000 H       1  UNL1        0.2125
     86 H          15.2173   -3.0369    0.0000 H       1  UNL1        0.0524
     87 H          16.0643   -2.8100    0.0000 H       1  UNL1        0.0524
     88 H          15.8373   -1.9631    0.0000 H       1  UNL1        0.0524
     89 H           3.7130    3.0369    0.0000 H       1  UNL1        0.0524
     90 H           2.8660    2.8100    0.0000 H       1  UNL1        0.0524
     91 H           3.0930    1.9631    0.0000 H       1  UNL1        0.0524
@<TRIPOS>BOND
     1    14     1    1
     2    18     1    1
     3     2    18    1
     4     2    21    1
     5     3    19    1
     6     3    23    1
     7    15     4    1
     8    25     4    1
     9    23     5    1
    10    24     5    1
    11    16     6    1
    12     6    38    1
    13    17     7    1
    14     7    39    1
    15     8    25    1
    16     8    31    1
    17     9    27    1
    18     9    35    1
    19    26    10    1
    20    10    40    1
    21    29    11    1
    22    11    41    1
    23    30    12    1
    24    12    84    1
    25    35    13    1
    26    13    85    1
    27    14    16    1
    28    14    19    1
    29    14    42    1
    30    15    17    1
    31    15    21    1
    32    15    43    1
    33    16    22    1
    34    16    44    1
    35    17    20    1
    36    17    45    1
    37    18    20    1
    38    18    46    1
    39    19    33    1
    40    19    47    1
    41    20    48    1
    42    20    49    1
    43    21    34    1
    44    21    50    1
    45    22    23    1
    46    22    51    1
    47    22    52    1
    48    23    53    1
    49    24    26    1
    50    24    27    1
    51    24    54    1
    52    25    28    1
    53    25    55    1
    54    26    32    1
    55    26    56    1
    56    27    36    1
    57    27    57    1
    58    28    29    1
    59    28    58    1
    60    28    59    1
    61    29    30    1
    62    29    60    1
    63    30    31    1
    64    30    61    1
    65    31    37    1
    66    31    62    1
    67    32    35    1
    68    32    63    1
    69    32    64    1
    70    33    65    1
    71    33    66    1
    72    33    67    1
    73    34    68    1
    74    34    69    1
    75    34    70    1
    76    35    71    1
    77    36    72    1
    78    36    73    1
    79    36    74    1
    80    37    75    1
    81    37    76    1
    82    37    77    1
    83    38    78    1
    84    38    79    1
    85    38    80    1
    86    39    81    1
    87    39    82    1
    88    39    83    1
    89    40    86    1
    90    40    87    1
    91    40    88    1
    92    41    89    1
    93    41    90    1
    94    41    91    1
