@<TRIPOS>MOLECULE
IMPHY005378
 32 31 0 0 0
SMALL
GASTEIGER

@<TRIPOS>ATOM
      1 O           5.4641    0.2500    0.0000 O.3     1  UNL1       -0.4642
      2 O           6.3301   -1.2500    0.0000 O.2     1  UNL1       -0.2505
      3 C           3.7320    0.2500    0.0000 C.3     1  UNL1       -0.0098
      4 C           2.8660   -0.2500    0.0000 C.3     1  UNL1       -0.0502
      5 C           4.5981   -0.2500    0.0000 C.3     1  UNL1        0.0950
      6 C           7.1962    0.2500    0.0000 C.3     1  UNL1        0.0534
      7 C           3.7320    1.2500    0.0000 C.3     1  UNL1       -0.0593
      8 C           8.0622   -0.2500    0.0000 C.3     1  UNL1       -0.0432
      9 C           6.3301   -0.2500    0.0000 C.2     1  UNL1        0.3099
     10 C           2.0000    0.2500    0.0000 C.3     1  UNL1       -0.0649
     11 C           7.1962    1.2500    0.0000 C.3     1  UNL1       -0.0523
     12 C           8.9282    0.2500    0.0000 C.3     1  UNL1       -0.0645
     13 H           4.2690    0.5600    0.0000 H       1  UNL1        0.0331
     14 H           2.4675   -0.7249    0.0000 H       1  UNL1        0.0266
     15 H           3.2646   -0.7249    0.0000 H       1  UNL1        0.0266
     16 H           4.1996   -0.7249    0.0000 H       1  UNL1        0.0700
     17 H           4.9966   -0.7249    0.0000 H       1  UNL1        0.0700
     18 H           6.6592    0.5600    0.0000 H       1  UNL1        0.0410
     19 H           4.3520    1.2500    0.0000 H       1  UNL1        0.0233
     20 H           3.7320    1.8700    0.0000 H       1  UNL1        0.0233
     21 H           3.1120    1.2500    0.0000 H       1  UNL1        0.0233
     22 H           7.6636   -0.7249    0.0000 H       1  UNL1        0.0270
     23 H           8.4607   -0.7249    0.0000 H       1  UNL1        0.0270
     24 H           2.3100    0.7869    0.0000 H       1  UNL1        0.0230
     25 H           1.4631    0.5600    0.0000 H       1  UNL1        0.0230
     26 H           1.6900   -0.2869    0.0000 H       1  UNL1        0.0230
     27 H           7.8162    1.2500    0.0000 H       1  UNL1        0.0238
     28 H           7.1962    1.8700    0.0000 H       1  UNL1        0.0238
     29 H           6.5762    1.2500    0.0000 H       1  UNL1        0.0238
     30 H           9.2382   -0.2869    0.0000 H       1  UNL1        0.0230
     31 H           9.4651    0.5600    0.0000 H       1  UNL1        0.0230
     32 H           8.6182    0.7869    0.0000 H       1  UNL1        0.0230
@<TRIPOS>BOND
     1     1     5    1
     2     1     9    1
     3     2     9    2
     4     3     4    1
     5     3     5    1
     6     3     7    1
     7     3    13    1
     8     4    10    1
     9     4    14    1
    10     4    15    1
    11     5    16    1
    12     5    17    1
    13     6     8    1
    14     6     9    1
    15     6    11    1
    16     6    18    1
    17     7    19    1
    18     7    20    1
    19     7    21    1
    20     8    12    1
    21     8    22    1
    22     8    23    1
    23    10    24    1
    24    10    25    1
    25    10    26    1
    26    11    27    1
    27    11    28    1
    28    11    29    1
    29    12    30    1
    30    12    31    1
    31    12    32    1
