@<TRIPOS>MOLECULE
IMPHY009307
 34 35 0 0 0
SMALL
GASTEIGER

@<TRIPOS>ATOM
      1 O           4.2690   -3.5000    0.0000 O.2     1  UNL1       -0.4882
      2 O           2.5369   -0.5000    0.0000 O.2     1  UNL1       -0.5025
      3 O           6.0010   -2.5000    0.0000 O.2     1  UNL1       -0.5007
      4 O           6.0010   -0.5000    0.0000 O.2     1  UNL1       -0.2830
      5 O           2.5369   -2.5000    0.0000 O.2     1  UNL1       -0.2799
      6 O           3.4030    1.0000    0.0000 O.2     1  UNL1       -0.2870
      7 C           4.2690   -0.5000    0.0000 C.2     1  UNL1        0.1173
      8 C           3.4030   -1.0000    0.0000 C.2     1  UNL1        0.1823
      9 C           5.1350   -1.0000    0.0000 C.2     1  UNL1        0.2382
     10 C           4.2690   -2.5000    0.0000 C.2     1  UNL1        0.2161
     11 C           5.1350   -2.0000    0.0000 C.2     1  UNL1        0.2110
     12 C           3.4030   -2.0000    0.0000 C.2     1  UNL1        0.2658
     13 C           4.2690    0.5000    0.0000 C.2     1  UNL1        0.1935
     14 C           5.1350    1.0000    0.0000 C.2     1  UNL1       -0.0135
     15 C           6.0010    2.5000    0.0000 C.ar    1  UNL1       -0.0249
     16 C           5.1350    2.0000    0.0000 C.2     1  UNL1       -0.0510
     17 C           6.8671    2.0000    0.0000 C.ar    1  UNL1       -0.0546
     18 C           6.0010    3.5000    0.0000 C.ar    1  UNL1       -0.0546
     19 C           7.7331    2.5000    0.0000 C.ar    1  UNL1       -0.0612
     20 C           6.8671    4.0000    0.0000 C.ar    1  UNL1       -0.0612
     21 C           7.7331    3.5000    0.0000 C.ar    1  UNL1       -0.0617
     22 C           3.4030   -4.0000    0.0000 C.3     1  UNL1        0.0791
     23 H           5.6720    0.6900    0.0000 H       1  UNL1        0.0656
     24 H           4.5981    2.3100    0.0000 H       1  UNL1        0.0625
     25 H           6.8671    1.3800    0.0000 H       1  UNL1        0.0623
     26 H           5.4641    3.8100    0.0000 H       1  UNL1        0.0623
     27 H           2.0000   -0.8100    0.0000 H       1  UNL1        0.2923
     28 H           8.2700    2.1900    0.0000 H       1  UNL1        0.0618
     29 H           6.8671    4.6200    0.0000 H       1  UNL1        0.0618
     30 H           6.0010   -3.1200    0.0000 H       1  UNL1        0.2924
     31 H           8.2700    3.8100    0.0000 H       1  UNL1        0.0618
     32 H           3.0930   -3.4631    0.0000 H       1  UNL1        0.0660
     33 H           2.8660   -4.3100    0.0000 H       1  UNL1        0.0660
     34 H           3.7130   -4.5369    0.0000 H       1  UNL1        0.0660
@<TRIPOS>BOND
     1     1    10    1
     2     1    22    1
     3     2     8    1
     4     2    27    1
     5     3    11    1
     6     3    30    1
     7     4     9    2
     8     5    12    2
     9     6    13    2
    10     7     8    2
    11     7     9    1
    12     7    13    1
    13     8    12    1
    14     9    11    1
    15    10    11    2
    16    10    12    1
    17    13    14    1
    18    14    16    2
    19    14    23    1
    20    15    16    1
    21    15    17   ar
    22    15    18   ar
    23    16    24    1
    24    17    19   ar
    25    17    25    1
    26    18    20   ar
    27    18    26    1
    28    19    21   ar
    29    19    28    1
    30    20    21   ar
    31    20    29    1
    32    21    31    1
    33    22    32    1
    34    22    33    1
    35    22    34    1
