@<TRIPOS>MOLECULE
IMPHY016000
 31 30 0 0 0
SMALL
GASTEIGER

@<TRIPOS>ATOM
      1 O           2.0000    1.0000    0.0000 O.3     1  UNL1       -0.3910
      2 C           7.1962   -1.0000    0.0000 C.3     1  UNL1       -0.0531
      3 C           6.3301   -0.5000    0.0000 C.3     1  UNL1       -0.0528
      4 C           8.0622   -0.5000    0.0000 C.3     1  UNL1       -0.0533
      5 C           5.4641   -1.0000    0.0000 C.3     1  UNL1       -0.0496
      6 C           8.9282   -1.0000    0.0000 C.3     1  UNL1       -0.0559
      7 C           4.5981   -0.5000    0.0000 C.3     1  UNL1       -0.0347
      8 C           9.7942   -0.5000    0.0000 C.3     1  UNL1       -0.0653
      9 C           3.7320   -1.0000    0.0000 C.2     1  UNL1       -0.0858
     10 C           2.8660   -0.5000    0.0000 C.2     1  UNL1       -0.0629
     11 C           2.8660    0.5000    0.0000 C.3     1  UNL1        0.0624
     12 H           6.7976   -1.4750    0.0000 H       1  UNL1        0.0265
     13 H           7.5947   -1.4750    0.0000 H       1  UNL1        0.0265
     14 H           6.7287   -0.0251    0.0000 H       1  UNL1        0.0265
     15 H           5.9316   -0.0251    0.0000 H       1  UNL1        0.0265
     16 H           8.4607   -0.0251    0.0000 H       1  UNL1        0.0265
     17 H           7.6636   -0.0251    0.0000 H       1  UNL1        0.0265
     18 H           5.0656   -1.4750    0.0000 H       1  UNL1        0.0268
     19 H           5.8626   -1.4750    0.0000 H       1  UNL1        0.0268
     20 H           8.5297   -1.4750    0.0000 H       1  UNL1        0.0263
     21 H           9.3267   -1.4750    0.0000 H       1  UNL1        0.0263
     22 H           4.9966   -0.0251    0.0000 H       1  UNL1        0.0307
     23 H           4.1996   -0.0251    0.0000 H       1  UNL1        0.0307
     24 H          10.1042   -1.0369    0.0000 H       1  UNL1        0.0230
     25 H          10.3312   -0.1900    0.0000 H       1  UNL1        0.0230
     26 H           9.4842    0.0369    0.0000 H       1  UNL1        0.0230
     27 H           3.7320   -1.6200    0.0000 H       1  UNL1        0.0570
     28 H           2.3291   -0.8100    0.0000 H       1  UNL1        0.0591
     29 H           3.4766    0.3923    0.0000 H       1  UNL1        0.0601
     30 H           3.0781    1.0826    0.0000 H       1  UNL1        0.0601
     31 H           2.0000    1.6200    0.0000 H       1  UNL1        0.2098
@<TRIPOS>BOND
     1     1    11    1
     2     1    31    1
     3     2     3    1
     4     2     4    1
     5     2    12    1
     6     2    13    1
     7     3     5    1
     8     3    14    1
     9     3    15    1
    10     4     6    1
    11     4    16    1
    12     4    17    1
    13     5     7    1
    14     5    18    1
    15     5    19    1
    16     6     8    1
    17     6    20    1
    18     6    21    1
    19     7     9    1
    20     7    22    1
    21     7    23    1
    22     8    24    1
    23     8    25    1
    24     8    26    1
    25     9    10    2
    26     9    27    1
    27    10    11    1
    28    10    28    1
    29    11    29    1
    30    11    30    1
