@<TRIPOS>MOLECULE
IMPHY016888
 39 40 0 0 0
SMALL
GASTEIGER

@<TRIPOS>ATOM
      1 C           3.7796    1.1417    0.0000 C.3     1  UNL1       -0.0056
      2 C           3.2796    0.2756    0.0000 C.3     1  UNL1       -0.0193
      3 C           4.5227    1.8108    0.0000 C.3     1  UNL1       -0.0431
      4 C           2.4136   -0.2244    0.0000 C.3     1  UNL1       -0.0429
      5 C           2.9136    1.6417    0.0000 C.2     1  UNL1       -0.0702
      6 C           4.1456   -0.2244    0.0000 C.3     1  UNL1       -0.0283
      7 C           4.1160    2.7244    0.0000 C.3     1  UNL1       -0.0486
      8 C           3.1215    2.6198    0.0000 C.3     1  UNL1       -0.0314
      9 C           4.4487    0.3985    0.0000 C.3     1  UNL1       -0.0553
     10 C           2.4136    0.7756    0.0000 C.3     1  UNL1       -0.0585
     11 C           2.4136   -1.2244    0.0000 C.3     1  UNL1       -0.0315
     12 C           4.1456   -1.2244    0.0000 C.2     1  UNL1       -0.0845
     13 C           3.2796   -1.7244    0.0000 C.2     1  UNL1       -0.0765
     14 C           2.0000    1.2349    0.0000 C.2     1  UNL1       -0.0989
     15 C           3.2796   -2.7244    0.0000 C.3     1  UNL1       -0.0438
     16 H           4.8871    1.3092    0.0000 H       1  UNL1        0.0274
     17 H           5.0597    2.1208    0.0000 H       1  UNL1        0.0274
     18 H           2.2015    0.3583    0.0000 H       1  UNL1        0.0274
     19 H           1.8030   -0.3320    0.0000 H       1  UNL1        0.0274
     20 H           4.7562   -0.3320    0.0000 H       1  UNL1        0.0313
     21 H           4.3576    0.3583    0.0000 H       1  UNL1        0.0313
     22 H           4.7056    2.9159    0.0000 H       1  UNL1        0.0269
     23 H           3.9871    3.3308    0.0000 H       1  UNL1        0.0269
     24 H           3.1215    3.2398    0.0000 H       1  UNL1        0.0310
     25 H           2.5048    2.6846    0.0000 H       1  UNL1        0.0310
     26 H           3.9880   -0.0163    0.0000 H       1  UNL1        0.0238
     27 H           4.8636   -0.0622    0.0000 H       1  UNL1        0.0238
     28 H           4.9094    0.8134    0.0000 H       1  UNL1        0.0238
     29 H           2.7236    1.3126    0.0000 H       1  UNL1        0.0235
     30 H           1.8766    1.0856    0.0000 H       1  UNL1        0.0235
     31 H           2.1035    0.2387    0.0000 H       1  UNL1        0.0235
     32 H           1.8030   -1.1167    0.0000 H       1  UNL1        0.0310
     33 H           2.2015   -1.8070    0.0000 H       1  UNL1        0.0310
     34 H           4.6825   -1.5344    0.0000 H       1  UNL1        0.0572
     35 H           1.4984    1.5994    0.0000 H       1  UNL1        0.0535
     36 H           1.9352    0.6183    0.0000 H       1  UNL1        0.0535
     37 H           2.6596   -2.7244    0.0000 H       1  UNL1        0.0274
     38 H           3.2796   -3.3444    0.0000 H       1  UNL1        0.0274
     39 H           3.8996   -2.7244    0.0000 H       1  UNL1        0.0274
@<TRIPOS>BOND
     1     1     2    1
     2     1     3    1
     3     1     5    1
     4     1     9    1
     5     2     4    1
     6     2     6    1
     7     2    10    1
     8     3     7    1
     9     3    16    1
    10     3    17    1
    11     4    11    1
    12     4    18    1
    13     4    19    1
    14     5     8    1
    15     5    14    2
    16     6    12    1
    17     6    20    1
    18     6    21    1
    19     7     8    1
    20     7    22    1
    21     7    23    1
    22     8    24    1
    23     8    25    1
    24     9    26    1
    25     9    27    1
    26     9    28    1
    27    10    29    1
    28    10    30    1
    29    10    31    1
    30    11    13    1
    31    11    32    1
    32    11    33    1
    33    12    13    2
    34    12    34    1
    35    13    15    1
    36    14    35    1
    37    14    36    1
    38    15    37    1
    39    15    38    1
    40    15    39    1
