@<TRIPOS>MOLECULE
IMPHY006700
 18 18 0 0 0
SMALL
GASTEIGER

@<TRIPOS>ATOM
      1 O           3.7320    1.2500    0.0000 O.3     1  UNL1       -0.4645
      2 O           2.0000    1.2500    0.0000 O.2     1  UNL1       -0.2450
      3 C           2.8660   -0.2500    0.0000 C.ar    1  UNL1        0.0590
      4 C           2.0000   -0.7500    0.0000 C.ar    1  UNL1       -0.0478
      5 C           3.7320   -0.7500    0.0000 C.ar    1  UNL1       -0.0478
      6 C           2.0000   -1.7500    0.0000 C.ar    1  UNL1       -0.0610
      7 C           3.7320   -1.7500    0.0000 C.ar    1  UNL1       -0.0610
      8 C           2.8660   -2.2500    0.0000 C.ar    1  UNL1       -0.0617
      9 C           2.8660    0.7500    0.0000 C.2     1  UNL1        0.3389
     10 C           3.7320    2.2500    0.0000 C.3     1  UNL1        0.0820
     11 H           1.4631   -0.4400    0.0000 H       1  UNL1        0.0626
     12 H           4.2690   -0.4400    0.0000 H       1  UNL1        0.0626
     13 H           1.4631   -2.0600    0.0000 H       1  UNL1        0.0618
     14 H           4.2690   -2.0600    0.0000 H       1  UNL1        0.0618
     15 H           2.8660   -2.8700    0.0000 H       1  UNL1        0.0618
     16 H           4.3520    2.2500    0.0000 H       1  UNL1        0.0661
     17 H           3.7320    2.8700    0.0000 H       1  UNL1        0.0661
     18 H           3.1120    2.2500    0.0000 H       1  UNL1        0.0661
@<TRIPOS>BOND
     1     1     9    1
     2     1    10    1
     3     2     9    2
     4     3     4   ar
     5     3     5   ar
     6     3     9    1
     7     4     6   ar
     8     4    11    1
     9     5     7   ar
    10     5    12    1
    11     6     8   ar
    12     6    13    1
    13     7     8   ar
    14     7    14    1
    15     8    15    1
    16    10    16    1
    17    10    17    1
    18    10    18    1
