@<TRIPOS>MOLECULE
IMPHY010820
 57 61 0 0 0
SMALL
GASTEIGER

@<TRIPOS>ATOM
      1 O           5.1515   -2.5674    0.0000 O.3     1  UNL1       -0.3675
      2 O           3.9031   -2.7360    0.0000 O.3     1  UNL1       -0.3910
      3 O           3.4094    1.8778    0.0000 O.3     1  UNL1       -0.4560
      4 O           5.6515   -2.7014    0.0000 O.3     1  UNL1       -0.4641
      5 O           2.1666    1.3158    0.0000 O.2     1  UNL1       -0.2502
      6 O           5.5242    4.2014    0.0000 O.2     1  UNL1       -0.4706
      7 O           4.7855   -4.2014    0.0000 O.2     1  UNL1       -0.2512
      8 C           4.7855   -1.2014    0.0000 C.3     1  UNL1        0.0656
      9 C           4.7855   -0.2014    0.0000 C.3     1  UNL1       -0.0110
     10 C           5.6515   -1.7014    0.0000 C.3     1  UNL1        0.1041
     11 C           3.8915    0.3333    0.0000 C.3     1  UNL1        0.0776
     12 C           3.8915   -1.7360    0.0000 C.3     1  UNL1        0.0672
     13 C           2.9855   -0.1806    0.0000 C.3     1  UNL1       -0.0253
     14 C           5.6515    0.2986    0.0000 C.3     1  UNL1       -0.0483
     15 C           6.5175   -1.2014    0.0000 C.3     1  UNL1       -0.0208
     16 C           6.1515   -2.5674    0.0000 C.3     1  UNL1        0.0782
     17 C           2.9855   -1.2222    0.0000 C.3     1  UNL1       -0.0225
     18 C           6.5175   -0.2014    0.0000 C.3     1  UNL1       -0.0501
     19 C           4.7855   -2.2014    0.0000 C.3     1  UNL1        0.1034
     20 C           4.7073    0.9117    0.0000 C.3     1  UNL1        0.0050
     21 C           3.0894    0.9304    0.0000 C.2     1  UNL1        0.3146
     22 C           4.4093    1.8662    0.0000 C.3     1  UNL1        0.1320
     23 C           2.0000   -0.3504    0.0000 C.3     1  UNL1       -0.0613
     24 C           5.0064    2.6684    0.0000 C.ar    1  UNL1        0.0304
     25 C           5.6515   -3.7014    0.0000 C.2     1  UNL1        0.3040
     26 C           6.0063    2.6568    0.0000 C.ar    1  UNL1       -0.0172
     27 C           4.7084    3.6230    0.0000 C.ar    1  UNL1        0.0983
     28 C           6.5175   -4.2014    0.0000 C.3     1  UNL1        0.0332
     29 C           6.3263    3.6043    0.0000 C.ar    1  UNL1        0.0921
     30 H           5.5216   -0.6264    0.0000 H       1  UNL1        0.0320
     31 H           3.3576   -2.0512    0.0000 H       1  UNL1        0.0601
     32 H           2.7768    0.4033    0.0000 H       1  UNL1        0.0310
     33 H           6.0500    0.7736    0.0000 H       1  UNL1        0.0268
     34 H           5.2530    0.7736    0.0000 H       1  UNL1        0.0268
     35 H           6.7296   -1.7840    0.0000 H       1  UNL1        0.0294
     36 H           7.1281   -1.0937    0.0000 H       1  UNL1        0.0294
     37 H           6.2592   -3.1780    0.0000 H       1  UNL1        0.0589
     38 H           6.7341   -2.3553    0.0000 H       1  UNL1        0.0589
     39 H           2.3746   -1.1161    0.0000 H       1  UNL1        0.0293
     40 H           2.7764   -1.8059    0.0000 H       1  UNL1        0.0293
     41 H           7.1281   -0.3090    0.0000 H       1  UNL1        0.0266
     42 H           6.7296    0.3812    0.0000 H       1  UNL1        0.0266
     43 H           4.1749   -2.0937    0.0000 H       1  UNL1        0.0705
     44 H           4.5734   -2.7840    0.0000 H       1  UNL1        0.0705
     45 H           5.0111    0.3712    0.0000 H       1  UNL1        0.0315
     46 H           5.2766    1.1573    0.0000 H       1  UNL1        0.0315
     47 H           5.0205    1.7622    0.0000 H       1  UNL1        0.0786
     48 H           1.8947    0.2606    0.0000 H       1  UNL1        0.0233
     49 H           1.3890   -0.4557    0.0000 H       1  UNL1        0.0233
     50 H           2.1053   -0.9614    0.0000 H       1  UNL1        0.0233
     51 H           3.3698   -3.0522    0.0000 H       1  UNL1        0.2098
     52 H           6.3649    2.1511    0.0000 H       1  UNL1        0.0653
     53 H           4.1210    3.8214    0.0000 H       1  UNL1        0.1033
     54 H           6.2075   -4.7383    0.0000 H       1  UNL1        0.0342
     55 H           7.0545   -4.5114    0.0000 H       1  UNL1        0.0342
     56 H           6.8275   -3.6644    0.0000 H       1  UNL1        0.0342
     57 H           6.9182    3.7890    0.0000 H       1  UNL1        0.1029
@<TRIPOS>BOND
     1    10     1    1
     2     1    16    1
     3    12     2    1
     4     2    51    1
     5     3    21    1
     6     3    22    1
     7     4    19    1
     8     4    25    1
     9     5    21    2
    10     6    27   ar
    11     6    29   ar
    12     7    25    2
    13     8     9    1
    14     8    10    1
    15     8    12    1
    16     8    19    1
    17     9    11    1
    18     9    14    1
    19     9    30    1
    20    10    15    1
    21    10    16    1
    22    11    13    1
    23    11    20    1
    24    11    21    1
    25    12    17    1
    26    12    31    1
    27    13    17    1
    28    13    23    1
    29    13    32    1
    30    14    18    1
    31    14    33    1
    32    14    34    1
    33    15    18    1
    34    15    35    1
    35    15    36    1
    36    16    37    1
    37    16    38    1
    38    17    39    1
    39    17    40    1
    40    18    41    1
    41    18    42    1
    42    19    43    1
    43    19    44    1
    44    20    22    1
    45    20    45    1
    46    20    46    1
    47    22    24    1
    48    22    47    1
    49    23    48    1
    50    23    49    1
    51    23    50    1
    52    24    26   ar
    53    24    27   ar
    54    25    28    1
    55    26    29   ar
    56    26    52    1
    57    27    53    1
    58    28    54    1
    59    28    55    1
    60    28    56    1
    61    29    57    1
