@<TRIPOS>MOLECULE
IMPHY005804
 11 10 0 0 0
SMALL
GASTEIGER

@<TRIPOS>ATOM
      1 S           4.5981    0.2500    0.0000 S.3     1  UNL1       -0.0852
      2 S           2.8660    0.2500    0.0000 S.3     1  UNL1       -0.0852
      3 S           3.7320   -0.2500    0.0000 S.3     1  UNL1       -0.0248
      4 C           5.4641   -0.2500    0.0000 C.3     1  UNL1       -0.0071
      5 C           2.0000   -0.2500    0.0000 C.3     1  UNL1       -0.0071
      6 H           5.1541   -0.7869    0.0000 H       1  UNL1        0.0349
      7 H           6.0010   -0.5600    0.0000 H       1  UNL1        0.0349
      8 H           5.7741    0.2869    0.0000 H       1  UNL1        0.0349
      9 H           1.6900    0.2869    0.0000 H       1  UNL1        0.0349
     10 H           1.4631   -0.5600    0.0000 H       1  UNL1        0.0349
     11 H           2.3100   -0.7869    0.0000 H       1  UNL1        0.0349
@<TRIPOS>BOND
     1     1     3    1
     2     1     4    1
     3     2     3    1
     4     2     5    1
     5     4     6    1
     6     4     7    1
     7     4     8    1
     8     5     9    1
     9     5    10    1
    10     5    11    1
