@<TRIPOS>MOLECULE
IMPHY016480
 35 34 0 0 0
SMALL
GASTEIGER

@<TRIPOS>ATOM
      1 O           3.9641    2.2500    0.0000 O.2     1  UNL1       -0.2968
      2 O           2.0000   -1.6160    0.0000 O.2     1  UNL1       -0.2930
      3 C           5.4641    1.3840    0.0000 C.3     1  UNL1        0.0465
      4 C           6.3301    1.8840    0.0000 C.3     1  UNL1       -0.0311
      5 C           5.9641    0.5179    0.0000 C.3     1  UNL1       -0.0491
      6 C           4.9641    2.2500    0.0000 C.2     1  UNL1        0.1401
      7 C           7.1962    1.3840    0.0000 C.3     1  UNL1       -0.0615
      8 C           6.3301    2.8840    0.0000 C.3     1  UNL1       -0.0615
      9 C           4.5981    0.8840    0.0000 C.2     1  UNL1       -0.0708
     10 C           5.4641    3.1160    0.0000 C.3     1  UNL1       -0.0052
     11 C           4.5981   -0.1160    0.0000 C.2     1  UNL1       -0.0647
     12 C           3.7320   -0.6160    0.0000 C.2     1  UNL1       -0.0587
     13 C           3.7320   -1.6160    0.0000 C.2     1  UNL1       -0.0195
     14 C           2.8660   -2.1160    0.0000 C.2     1  UNL1        0.1530
     15 C           2.8660   -3.1160    0.0000 C.3     1  UNL1       -0.0020
     16 H           6.8671    2.1940    0.0000 H       1  UNL1        0.0308
     17 H           5.4272    0.2079    0.0000 H       1  UNL1        0.0242
     18 H           6.2741   -0.0190    0.0000 H       1  UNL1        0.0242
     19 H           6.5010    0.8279    0.0000 H       1  UNL1        0.0242
     20 H           6.8862    0.8470    0.0000 H       1  UNL1        0.0233
     21 H           7.7331    1.0740    0.0000 H       1  UNL1        0.0233
     22 H           7.5062    1.9209    0.0000 H       1  UNL1        0.0233
     23 H           6.9501    2.8840    0.0000 H       1  UNL1        0.0233
     24 H           6.3301    3.5040    0.0000 H       1  UNL1        0.0233
     25 H           5.7101    2.8840    0.0000 H       1  UNL1        0.0233
     26 H           4.0611    1.1940    0.0000 H       1  UNL1        0.0582
     27 H           6.0010    2.8060    0.0000 H       1  UNL1        0.0306
     28 H           5.7741    3.6530    0.0000 H       1  UNL1        0.0306
     29 H           4.9272    3.4260    0.0000 H       1  UNL1        0.0306
     30 H           5.1350   -0.4260    0.0000 H       1  UNL1        0.0615
     31 H           3.1951   -0.3060    0.0000 H       1  UNL1        0.0619
     32 H           4.2690   -1.9260    0.0000 H       1  UNL1        0.0652
     33 H           2.2460   -3.1160    0.0000 H       1  UNL1        0.0309
     34 H           2.8660   -3.7360    0.0000 H       1  UNL1        0.0309
     35 H           3.4860   -3.1160    0.0000 H       1  UNL1        0.0309
@<TRIPOS>BOND
     1     1     6    2
     2     2    14    2
     3     3     4    1
     4     3     5    1
     5     3     6    1
     6     3     9    1
     7     4     7    1
     8     4     8    1
     9     4    16    1
    10     5    17    1
    11     5    18    1
    12     5    19    1
    13     6    10    1
    14     7    20    1
    15     7    21    1
    16     7    22    1
    17     8    23    1
    18     8    24    1
    19     8    25    1
    20     9    11    2
    21     9    26    1
    22    10    27    1
    23    10    28    1
    24    10    29    1
    25    11    12    1
    26    11    30    1
    27    12    13    2
    28    12    31    1
    29    13    14    1
    30    13    32    1
    31    14    15    1
    32    15    33    1
    33    15    34    1
    34    15    35    1
