@<TRIPOS>MOLECULE
IMPHY007458
 25 27 0 0 0
SMALL
GASTEIGER

@<TRIPOS>ATOM
      1 O           8.0321   -0.0608    0.0000 O.3     1  UNL1       -0.4950
      2 N           4.5274    0.8518    0.0000 N.ar    1  UNL1       -0.3529
      3 N           2.0000   -0.2724    0.0000 N.ar    1  UNL1       -0.2612
      4 C           5.0274   -0.6871    0.0000 C.ar    1  UNL1        0.0077
      5 C           5.3364    0.2640    0.0000 C.ar    1  UNL1        0.0510
      6 C           4.0274   -0.6871    0.0000 C.ar    1  UNL1        0.0103
      7 C           3.7183    0.2640    0.0000 C.ar    1  UNL1        0.0658
      8 C           5.7123   -1.4718    0.0000 C.ar    1  UNL1       -0.0485
      9 C           6.3518    0.4963    0.0000 C.ar    1  UNL1        0.0040
     10 C           3.3424   -1.4718    0.0000 C.ar    1  UNL1       -0.0338
     11 C           7.0547   -0.2724    0.0000 C.ar    1  UNL1        0.1221
     12 C           6.7328   -1.2631    0.0000 C.ar    1  UNL1       -0.0192
     13 C           2.7029    0.4963    0.0000 C.ar    1  UNL1        0.0514
     14 C           2.3219   -1.2631    0.0000 C.ar    1  UNL1        0.0283
     15 C           8.7040   -0.8013    0.0000 C.3     1  UNL1        0.0788
     16 H           4.5274    1.4718    0.0000 H       1  UNL1        0.1660
     17 H           5.5139   -2.0592    0.0000 H       1  UNL1        0.0625
     18 H           6.5365    1.0881    0.0000 H       1  UNL1        0.0675
     19 H           3.5408   -2.0592    0.0000 H       1  UNL1        0.0639
     20 H           7.1459   -1.7254    0.0000 H       1  UNL1        0.0654
     21 H           2.5182    1.0881    0.0000 H       1  UNL1        0.0851
     22 H           1.9088   -1.7254    0.0000 H       1  UNL1        0.0830
     23 H           8.2449   -1.2180    0.0000 H       1  UNL1        0.0660
     24 H           9.1207   -1.2605    0.0000 H       1  UNL1        0.0660
     25 H           9.1632   -0.3847    0.0000 H       1  UNL1        0.0660
@<TRIPOS>BOND
     1     1    11    1
     2     1    15    1
     3     2     5   ar
     4     2     7   ar
     5     2    16    1
     6     3    13   ar
     7     3    14   ar
     8     4     5   ar
     9     4     6   ar
    10     4     8   ar
    11     5     9   ar
    12     6     7   ar
    13     6    10   ar
    14     7    13   ar
    15     8    12   ar
    16     8    17    1
    17     9    11   ar
    18     9    18    1
    19    10    14   ar
    20    10    19    1
    21    11    12   ar
    22    12    20    1
    23    13    21    1
    24    14    22    1
    25    15    23    1
    26    15    24    1
    27    15    25    1
