@<TRIPOS>MOLECULE
IMPHY010703
 29 30 0 0 0
SMALL
GASTEIGER

@<TRIPOS>ATOM
      1 C          29.8375   -8.8435    0.0000 C.3     1  UNL1        0.0623
      2 C          30.6193   -7.7675    0.0000 C.3     1  UNL1        0.1835
      3 C          30.6193   -9.9195    0.0000 C.3     1  UNL1        0.0762
      4 C          31.8842   -8.1785    0.0000 C.3     1  UNL1        0.0823
      5 N          31.8842   -9.5085    0.0000 N.3     1  UNL1       -0.2681
      6 C          33.1491   -7.7675    0.0000 C.2     1  UNL1        0.0087
      7 C          33.9309   -8.8435    0.0000 C.2     1  UNL1       -0.0127
      8 C          33.1491   -9.9195    0.0000 C.3     1  UNL1        0.0984
      9 O          30.2083   -6.5026    0.0000 O.3     1  UNL1       -0.4478
     10 C          33.5601   -6.5026    0.0000 C.3     1  UNL1        0.2317
     11 O          34.8610   -6.2261    0.0000 O.3     1  UNL1       -0.4421
     12 C          35.2720   -4.9612    0.0000 C.2     1  UNL1        0.3471
     13 C          36.5730   -4.6847    0.0000 C.3     1  UNL1        0.2364
     14 O          34.3821   -3.9728    0.0000 O.2     1  UNL1       -0.2473
     15 C          36.2964   -3.3837    0.0000 C.3     1  UNL1        0.0407
     16 C          37.8739   -4.4081    0.0000 C.3     1  UNL1        0.1441
     17 O          37.9964   -3.2624    0.0000 O.3     1  UNL1       -0.2268
     18 C          38.7932   -5.4874    0.0000 C.3     1  UNL1        0.0317
     19 O          36.8495   -5.9856    0.0000 O.3     1  UNL1       -0.2120
     20 C          35.0315   -2.9727    0.0000 C.3     1  UNL1        0.0032
     21 H          39.1748   -4.1316    0.0000 H       1  UNL1        0.0670
     22 H          31.8842   -6.8485    0.0000 H       1  UNL1        0.0552
     23 C          37.2848   -2.4938    0.0000 C.3     1  UNL1        0.0032
     24 C          28.9074   -6.2261    0.0000 C.2     1  UNL1        0.3407
     25 O          28.0174   -7.2145    0.0000 O.2     1  UNL1       -0.2449
     26 C          28.4964   -4.9612    0.0000 C.2     1  UNL1        0.0734
     27 C          27.1954   -4.6847    0.0000 C.2     1  UNL1       -0.0372
     28 C          26.7845   -3.4198    0.0000 C.3     1  UNL1        0.0266
     29 C          26.3055   -5.6730    0.0000 C.3     1  UNL1        0.0266
@<TRIPOS>BOND
     1     2     1    1
     2     2     9    1
     3     3     1    1
     4     4     2    1
     5     4    22    1
     6     5     3    1
     7     5     4    1
     8     6     4    1
     9     6    10    1
    10     7     6    2
    11     8     5    1
    12     8     7    1
    13     9    24    1
    14    10    11    1
    15    11    12    1
    16    12    14    2
    17    13    12    1
    18    13    15    1
    19    13    16    1
    20    13    19    1
    21    15    20    1
    22    15    23    1
    23    16    17    1
    24    16    18    1
    25    16    21    1
    26    24    25    2
    27    24    26    1
    28    26    27    2
    29    27    28    1
    30    27    29    1
