@<TRIPOS>MOLECULE
IMPHY013747
 23 24 0 0 0
SMALL
GASTEIGER

@<TRIPOS>ATOM
      1 O           2.8660   -1.5173    0.0000 O.2     1  UNL1       -0.2924
      2 C           5.4641   -0.0173    0.0000 C.ar    1  UNL1       -0.0172
      3 C           5.4641    0.9827    0.0000 C.ar    1  UNL1       -0.0178
      4 C           3.7320   -0.0173    0.0000 C.ar    1  UNL1        0.0177
      5 C           4.5981   -0.5173    0.0000 C.ar    1  UNL1       -0.0436
      6 C           4.5981    1.4827    0.0000 C.ar    1  UNL1       -0.0534
      7 C           3.7320    0.9827    0.0000 C.ar    1  UNL1       -0.0507
      8 C           6.3580   -0.5520    0.0000 C.ar    1  UNL1       -0.0540
      9 C           6.3580    1.5173    0.0000 C.ar    1  UNL1       -0.0540
     10 C           7.2641   -0.0381    0.0000 C.ar    1  UNL1       -0.0612
     11 C           7.2641    1.0035    0.0000 C.ar    1  UNL1       -0.0612
     12 C           2.8660   -0.5173    0.0000 C.2     1  UNL1        0.1601
     13 C           2.0000   -0.0173    0.0000 C.3     1  UNL1       -0.0014
     14 H           4.5981   -1.1373    0.0000 H       1  UNL1        0.0631
     15 H           4.5981    2.1027    0.0000 H       1  UNL1        0.0624
     16 H           3.1951    1.2927    0.0000 H       1  UNL1        0.0625
     17 H           6.3509   -1.1720    0.0000 H       1  UNL1        0.0624
     18 H           6.3509    2.1373    0.0000 H       1  UNL1        0.0624
     19 H           7.7998   -0.3502    0.0000 H       1  UNL1        0.0618
     20 H           7.7998    1.3156    0.0000 H       1  UNL1        0.0618
     21 H           2.3100    0.5196    0.0000 H       1  UNL1        0.0309
     22 H           1.4631    0.2927    0.0000 H       1  UNL1        0.0309
     23 H           1.6900   -0.5543    0.0000 H       1  UNL1        0.0309
@<TRIPOS>BOND
     1     1    12    2
     2     2     3   ar
     3     2     5   ar
     4     2     8   ar
     5     3     6   ar
     6     3     9   ar
     7     4     5   ar
     8     4     7   ar
     9     4    12    1
    10     5    14    1
    11     6     7   ar
    12     6    15    1
    13     7    16    1
    14     8    10   ar
    15     8    17    1
    16     9    11   ar
    17     9    18    1
    18    10    11   ar
    19    10    19    1
    20    11    20    1
    21    12    13    1
    22    13    21    1
    23    13    22    1
    24    13    23    1
