@<TRIPOS>MOLECULE
IMPHY011439
 26 25 0 0 0
SMALL
GASTEIGER

@<TRIPOS>ATOM
      1 O           9.7942    0.2500    0.0000 O.3     1  UNL1       -0.3910
      2 C           5.4641   -0.2500    0.0000 C.3     1  UNL1       -0.0313
      3 C           6.3301    0.2500    0.0000 C.3     1  UNL1       -0.0313
      4 C           4.5981    0.2500    0.0000 C.2     1  UNL1       -0.0877
      5 C           2.8660    0.2500    0.0000 C.3     1  UNL1       -0.0376
      6 C           7.1962   -0.2500    0.0000 C.2     1  UNL1       -0.0855
      7 C           3.7320   -0.2500    0.0000 C.2     1  UNL1       -0.0882
      8 C           8.0622    0.2500    0.0000 C.2     1  UNL1       -0.0629
      9 C           2.0000   -0.2500    0.0000 C.3     1  UNL1       -0.0618
     10 C           8.9282   -0.2500    0.0000 C.3     1  UNL1        0.0624
     11 H           5.0656   -0.7249    0.0000 H       1  UNL1        0.0310
     12 H           5.8626   -0.7249    0.0000 H       1  UNL1        0.0310
     13 H           6.7287    0.7249    0.0000 H       1  UNL1        0.0310
     14 H           5.9316    0.7249    0.0000 H       1  UNL1        0.0310
     15 H           4.5981    0.8700    0.0000 H       1  UNL1        0.0569
     16 H           3.2646    0.7249    0.0000 H       1  UNL1        0.0305
     17 H           2.4675    0.7249    0.0000 H       1  UNL1        0.0305
     18 H           7.1962   -0.8700    0.0000 H       1  UNL1        0.0570
     19 H           3.7320   -0.8700    0.0000 H       1  UNL1        0.0569
     20 H           8.0622    0.8700    0.0000 H       1  UNL1        0.0591
     21 H           1.6900    0.2869    0.0000 H       1  UNL1        0.0233
     22 H           1.4631   -0.5600    0.0000 H       1  UNL1        0.0233
     23 H           2.3100   -0.7869    0.0000 H       1  UNL1        0.0233
     24 H           8.5297   -0.7249    0.0000 H       1  UNL1        0.0601
     25 H           9.3267   -0.7249    0.0000 H       1  UNL1        0.0601
     26 H          10.3312   -0.0600    0.0000 H       1  UNL1        0.2098
@<TRIPOS>BOND
     1     1    10    1
     2     1    26    1
     3     2     3    1
     4     2     4    1
     5     2    11    1
     6     2    12    1
     7     3     6    1
     8     3    13    1
     9     3    14    1
    10     4     7    2
    11     4    15    1
    12     5     7    1
    13     5     9    1
    14     5    16    1
    15     5    17    1
    16     6     8    2
    17     6    18    1
    18     7    19    1
    19     8    10    1
    20     8    20    1
    21     9    21    1
    22     9    22    1
    23     9    23    1
    24    10    24    1
    25    10    25    1
