@<TRIPOS>MOLECULE
IMPHY008691
 18 19 0 0 0
SMALL
GASTEIGER

@<TRIPOS>ATOM
      1 O           6.0290   -1.5346    0.0000 O.2     1  UNL1       -0.4626
      2 O           2.5369   -1.5000    0.0000 O.3     1  UNL1       -0.5066
      3 O           6.0174    1.5346    0.0000 O.2     1  UNL1       -0.2871
      4 C           5.1350    0.0000    0.0000 C.ar    1  UNL1        0.0642
      5 C           5.1350   -1.0000    0.0000 C.ar    1  UNL1        0.1418
      6 C           4.2690    0.5000    0.0000 C.ar    1  UNL1       -0.0439
      7 C           4.2690   -1.5000    0.0000 C.ar    1  UNL1        0.0228
      8 C           6.0290    0.5347    0.0000 C.ar    1  UNL1        0.1925
      9 C           3.4030   -1.0000    0.0000 C.ar    1  UNL1        0.1204
     10 C           3.4030    0.0000    0.0000 C.ar    1  UNL1       -0.0193
     11 C           6.9350    0.0208    0.0000 C.ar    1  UNL1        0.0207
     12 C           6.9350   -1.0208    0.0000 C.ar    1  UNL1        0.0961
     13 H           4.2690    1.1200    0.0000 H       1  UNL1        0.0627
     14 H           4.2690   -2.1200    0.0000 H       1  UNL1        0.0691
     15 H           2.8660    0.3100    0.0000 H       1  UNL1        0.0654
     16 H           7.4708    0.3329    0.0000 H       1  UNL1        0.0687
     17 H           7.4708   -1.3328    0.0000 H       1  UNL1        0.1031
     18 H           2.0000   -1.1900    0.0000 H       1  UNL1        0.2921
@<TRIPOS>BOND
     1     1     5   ar
     2     1    12   ar
     3     2     9    1
     4     2    18    1
     5     3     8    2
     6     4     5   ar
     7     4     6   ar
     8     4     8   ar
     9     5     7   ar
    10     6    10   ar
    11     6    13    1
    12     7     9   ar
    13     7    14    1
    14     8    11   ar
    15     9    10   ar
    16    10    15    1
    17    11    12   ar
    18    11    16    1
    19    12    17    1
