@<TRIPOS>MOLECULE
IMPHY012472
 42 46 0 0 0
SMALL
GASTEIGER

@<TRIPOS>ATOM
      1 O           6.3002   -1.1621    0.0000 O.3     1  UNL1       -0.4605
      2 O           3.4519   -2.7090    0.0000 O.3     1  UNL1       -0.4526
      3 O           2.0000   -1.8708    0.0000 O.3     1  UNL1       -0.4526
      4 O           8.0321   -1.1821    0.0000 O.2     1  UNL1       -0.2512
      5 N           4.5518    1.8725    0.0000 N.3     1  UNL1       -0.2906
      6 C           5.4178    1.3725    0.0000 C.3     1  UNL1        0.0422
      7 C           5.4178    0.3725    0.0000 C.3     1  UNL1        0.0413
      8 C           6.3117    1.9072    0.0000 C.2     1  UNL1       -0.0544
      9 C           6.3117   -0.1622    0.0000 C.3     1  UNL1        0.1149
     10 C           4.9169    2.7968    0.0000 C.3     1  UNL1        0.0035
     11 C           5.9105    2.8164    0.0000 C.3     1  UNL1       -0.0174
     12 C           4.5518   -0.1275    0.0000 C.ar    1  UNL1       -0.0309
     13 C           3.6857    1.3725    0.0000 C.3     1  UNL1        0.0250
     14 C           7.2178    0.3517    0.0000 C.3     1  UNL1        0.0035
     15 C           3.6857    0.3725    0.0000 C.ar    1  UNL1       -0.0260
     16 C           7.2178    1.3933    0.0000 C.2     1  UNL1       -0.0797
     17 C           4.5678   -1.1690    0.0000 C.ar    1  UNL1       -0.0122
     18 C           2.7757   -0.1344    0.0000 C.ar    1  UNL1       -0.0115
     19 C           3.6698   -1.6968    0.0000 C.ar    1  UNL1        0.1665
     20 C           2.7677   -1.1760    0.0000 C.ar    1  UNL1        0.1665
     21 C           7.1603   -1.6721    0.0000 C.2     1  UNL1        0.3042
     22 C           2.4220   -2.8164    0.0000 C.3     1  UNL1        0.2332
     23 C           7.1488   -2.6720    0.0000 C.3     1  UNL1        0.0332
     24 H           6.1539    0.9475    0.0000 H       1  UNL1        0.0516
     25 H           5.4112   -0.4775    0.0000 H       1  UNL1        0.0404
     26 H           6.8456   -0.4773    0.0000 H       1  UNL1        0.0743
     27 H           4.9863    3.4129    0.0000 H       1  UNL1        0.0430
     28 H           4.3153    2.9467    0.0000 H       1  UNL1        0.0430
     29 H           6.5057    2.9899    0.0000 H       1  UNL1        0.0323
     30 H           5.8168    3.4293    0.0000 H       1  UNL1        0.0323
     31 H           3.4737    1.9551    0.0000 H       1  UNL1        0.0476
     32 H           3.0752    1.2648    0.0000 H       1  UNL1        0.0476
     33 H           7.4268   -0.2320    0.0000 H       1  UNL1        0.0343
     34 H           7.8286    0.4578    0.0000 H       1  UNL1        0.0343
     35 H           7.7535    1.7054    0.0000 H       1  UNL1        0.0573
     36 H           5.1083   -1.4728    0.0000 H       1  UNL1        0.0658
     37 H           2.2424    0.1818    0.0000 H       1  UNL1        0.0658
     38 H           1.8324   -3.0081    0.0000 H       1  UNL1        0.1166
     39 H           2.5507   -3.4229    0.0000 H       1  UNL1        0.1166
     40 H           6.5288   -2.6648    0.0000 H       1  UNL1        0.0342
     41 H           7.1416   -3.2920    0.0000 H       1  UNL1        0.0342
     42 H           7.7687   -2.6792    0.0000 H       1  UNL1        0.0342
@<TRIPOS>BOND
     1     9     1    1
     2     1    21    1
     3     2    19    1
     4     2    22    1
     5     3    20    1
     6     3    22    1
     7     4    21    2
     8     5     6    1
     9     5    10    1
    10     5    13    1
    11     6     7    1
    12     6     8    1
    13     6    24    1
    14     7     9    1
    15     7    12    1
    16     7    25    1
    17     8    11    1
    18     8    16    2
    19     9    14    1
    20     9    26    1
    21    10    11    1
    22    10    27    1
    23    10    28    1
    24    11    29    1
    25    11    30    1
    26    12    15   ar
    27    12    17   ar
    28    13    15    1
    29    13    31    1
    30    13    32    1
    31    14    16    1
    32    14    33    1
    33    14    34    1
    34    15    18   ar
    35    16    35    1
    36    17    19   ar
    37    17    36    1
    38    18    20   ar
    39    18    37    1
    40    19    20   ar
    41    21    23    1
    42    22    38    1
    43    22    39    1
    44    23    40    1
    45    23    41    1
    46    23    42    1
