@<TRIPOS>MOLECULE
IMPHY003335
 44 48 0 0 0
SMALL
GASTEIGER

@<TRIPOS>ATOM
      1 O           7.3092    1.5453    0.0000 O.3     1  UNL1       -0.4520
      2 O           7.3092    3.1548    0.0000 O.3     1  UNL1       -0.4526
      3 O           7.3534   -1.7869    0.0000 O.3     1  UNL1       -0.4914
      4 O           5.5501   -2.8467    0.0000 O.3     1  UNL1       -0.4914
      5 N           2.8816    1.8714    0.0000 N.pl3   1  UNL1       -0.3321
      6 C           4.6309    1.8500    0.0000 C.ar    1  UNL1        0.0107
      7 C           4.6309    2.8500    0.0000 C.ar    1  UNL1       -0.0327
      8 C           3.7209    1.3432    0.0000 C.ar    1  UNL1        0.0382
      9 C           5.4969    1.3500    0.0000 C.ar    1  UNL1        0.0374
     10 C           3.7727    3.3470    0.0000 C.3     1  UNL1       -0.0112
     11 C           2.9072    2.8628    0.0000 C.3     1  UNL1        0.0159
     12 C           5.5130    0.3085    0.0000 C.ar    1  UNL1       -0.0027
     13 C           6.3629    1.8500    0.0000 C.ar    1  UNL1        0.1745
     14 C           4.6149   -0.2192    0.0000 C.ar    1  UNL1       -0.0117
     15 C           3.7129    0.3016    0.0000 C.ar    1  UNL1       -0.0322
     16 C           5.4969    3.3500    0.0000 C.ar    1  UNL1       -0.0123
     17 C           6.3629    2.8500    0.0000 C.ar    1  UNL1        0.1671
     18 C           2.0000    1.3994    0.0000 C.3     1  UNL1        0.0007
     19 C           6.4649   -0.2121    0.0000 C.ar    1  UNL1       -0.0079
     20 C           4.6066   -1.3042    0.0000 C.ar    1  UNL1       -0.0085
     21 C           7.8928    2.3500    0.0000 C.3     1  UNL1        0.2333
     22 C           6.4816   -1.2970    0.0000 C.ar    1  UNL1        0.1621
     23 C           5.5462   -1.8467    0.0000 C.ar    1  UNL1        0.1621
     24 C           7.3649   -2.7869    0.0000 C.3     1  UNL1        0.0790
     25 C           4.6860   -3.3500    0.0000 C.3     1  UNL1        0.0790
     26 H           4.1737    3.8198    0.0000 H       1  UNL1        0.0329
     27 H           3.3786    3.8256    0.0000 H       1  UNL1        0.0329
     28 H           2.7054    3.4490    0.0000 H       1  UNL1        0.0467
     29 H           2.2944    2.7684    0.0000 H       1  UNL1        0.0467
     30 H           3.1747   -0.0063    0.0000 H       1  UNL1        0.0642
     31 H           5.4969    3.9700    0.0000 H       1  UNL1        0.0658
     32 H           1.7073    1.9459    0.0000 H       1  UNL1        0.0428
     33 H           1.4534    1.1067    0.0000 H       1  UNL1        0.0428
     34 H           2.2927    0.8528    0.0000 H       1  UNL1        0.0428
     35 H           6.9958    0.1082    0.0000 H       1  UNL1        0.0662
     36 H           4.0684   -1.6121    0.0000 H       1  UNL1        0.0661
     37 H           8.3536    1.9353    0.0000 H       1  UNL1        0.1166
     38 H           8.3536    2.7648    0.0000 H       1  UNL1        0.1166
     39 H           6.7450   -2.7940    0.0000 H       1  UNL1        0.0660
     40 H           7.3721   -3.4068    0.0000 H       1  UNL1        0.0660
     41 H           7.9849   -2.7797    0.0000 H       1  UNL1        0.0660
     42 H           4.3739   -2.8143    0.0000 H       1  UNL1        0.0660
     43 H           4.1502   -3.6621    0.0000 H       1  UNL1        0.0660
     44 H           4.9980   -3.8858    0.0000 H       1  UNL1        0.0660
@<TRIPOS>BOND
     1     1    13    1
     2     1    21    1
     3     2    17    1
     4     2    21    1
     5     3    22    1
     6     3    24    1
     7     4    23    1
     8     4    25    1
     9     5     8    1
    10     5    11    1
    11     5    18    1
    12     6     7   ar
    13     6     8   ar
    14     6     9   ar
    15     7    10    1
    16     7    16   ar
    17     8    15   ar
    18     9    12   ar
    19     9    13   ar
    20    10    11    1
    21    10    26    1
    22    10    27    1
    23    11    28    1
    24    11    29    1
    25    12    14   ar
    26    12    19   ar
    27    13    17   ar
    28    14    15   ar
    29    14    20   ar
    30    15    30    1
    31    16    17   ar
    32    16    31    1
    33    18    32    1
    34    18    33    1
    35    18    34    1
    36    19    22   ar
    37    19    35    1
    38    20    23   ar
    39    20    36    1
    40    21    37    1
    41    21    38    1
    42    22    23   ar
    43    24    39    1
    44    24    40    1
    45    24    41    1
    46    25    42    1
    47    25    43    1
    48    25    44    1
