@<TRIPOS>MOLECULE
IMPHY007627
 25 26 0 0 0
SMALL
GASTEIGER

@<TRIPOS>ATOM
      1 O           2.0000   -0.1662    0.0000 O.2     1  UNL1       -0.4710
      2 O           4.9889    2.0891    0.0000 O.3     1  UNL1       -0.3872
      3 O           2.8660   -1.6662    0.0000 O.3     1  UNL1       -0.3573
      4 O           5.9674   -1.6276    0.0000 O.3     1  UNL1       -0.3907
      5 C           3.7320   -0.1662    0.0000 C.3     1  UNL1        0.0536
      6 C           3.7320    0.8338    0.0000 C.3     1  UNL1        0.0221
      7 C           4.6783    1.1386    0.0000 C.3     1  UNL1        0.0807
      8 C           4.6783   -0.4709    0.0000 C.2     1  UNL1       -0.0363
      9 C           2.8660   -0.6662    0.0000 C.3     1  UNL1        0.2056
     10 C           5.2619    0.3338    0.0000 C.2     1  UNL1       -0.0534
     11 C           2.8660    1.3338    0.0000 C.2     1  UNL1       -0.0430
     12 C           4.9889   -1.4214    0.0000 C.3     1  UNL1        0.0659
     13 C           2.0000    0.8338    0.0000 C.2     1  UNL1        0.0843
     14 H           3.8220   -1.0114    0.0000 H       1  UNL1        0.0414
     15 H           3.8220    1.6791    0.0000 H       1  UNL1        0.0380
     16 H           5.2908    1.2348    0.0000 H       1  UNL1        0.0644
     17 H           3.4030   -0.9762    0.0000 H       1  UNL1        0.1060
     18 H           5.8819    0.3338    0.0000 H       1  UNL1        0.0598
     19 H           2.8660    1.9538    0.0000 H       1  UNL1        0.0606
     20 H           4.3751   -1.5088    0.0000 H       1  UNL1        0.0604
     21 H           4.9684   -2.0411    0.0000 H       1  UNL1        0.0604
     22 H           1.4631    1.1438    0.0000 H       1  UNL1        0.1021
     23 H           5.5956    2.2170    0.0000 H       1  UNL1        0.2102
     24 H           2.3291   -1.9762    0.0000 H       1  UNL1        0.2136
     25 H           6.1600   -2.2170    0.0000 H       1  UNL1        0.2098
@<TRIPOS>BOND
     1     1     9    1
     2     1    13    1
     3     7     2    1
     4     2    23    1
     5     9     3    1
     6     3    24    1
     7     4    12    1
     8     4    25    1
     9     5     6    1
    10     5     8    1
    11     5     9    1
    12     5    14    1
    13     6     7    1
    14     6    11    1
    15     6    15    1
    16     7    10    1
    17     7    16    1
    18     8    10    2
    19     8    12    1
    20     9    17    1
    21    10    18    1
    22    11    13    2
    23    11    19    1
    24    12    20    1
    25    12    21    1
    26    13    22    1
