@<TRIPOS>MOLECULE
IMPHY013982
 30 31 0 0 0
SMALL
GASTEIGER

@<TRIPOS>ATOM
      1 O           3.4352    0.9505    0.0000 O.3     1  UNL1       -0.3650
      2 O           2.6176   -2.3624    0.0000 O.3     1  UNL1       -0.3889
      3 C           4.6718    0.1019    0.0000 C.3     1  UNL1       -0.0098
      4 C           4.4130   -0.8641    0.0000 C.3     1  UNL1        0.0932
      5 C           4.3012    1.4505    0.0000 C.3     1  UNL1        0.0677
      6 C           3.0403   -1.4561    0.0000 C.3     1  UNL1        0.0842
      7 C           2.6982   -0.5164    0.0000 C.3     1  UNL1       -0.0187
      8 C           6.0707   -0.4070    0.0000 C.3     1  UNL1       -0.0449
      9 C           5.8119   -1.3729    0.0000 C.3     1  UNL1       -0.0212
     10 C           4.1541   -1.8300    0.0000 C.3     1  UNL1       -0.0334
     11 C           4.0424    2.4164    0.0000 C.3     1  UNL1       -0.0358
     12 C           5.0083    2.1576    0.0000 C.3     1  UNL1       -0.0358
     13 H           4.6578   -0.5180    0.0000 H       1  UNL1        0.0329
     14 H           3.4722   -1.9008    0.0000 H       1  UNL1        0.0622
     15 H           2.5040    0.0724    0.0000 H       1  UNL1        0.0295
     16 H           2.1125   -0.7196    0.0000 H       1  UNL1        0.0295
     17 H           6.6647   -0.5847    0.0000 H       1  UNL1        0.0270
     18 H           6.2656    0.1816    0.0000 H       1  UNL1        0.0270
     19 H           5.6170   -1.9614    0.0000 H       1  UNL1        0.0294
     20 H           6.4059   -1.5507    0.0000 H       1  UNL1        0.0294
     21 H           3.5553   -1.6695    0.0000 H       1  UNL1        0.0258
     22 H           3.9937   -2.4289    0.0000 H       1  UNL1        0.0258
     23 H           4.7530   -1.9905    0.0000 H       1  UNL1        0.0258
     24 H           4.6412    2.5769    0.0000 H       1  UNL1        0.0257
     25 H           3.8819    3.0153    0.0000 H       1  UNL1        0.0257
     26 H           3.4435    2.2560    0.0000 H       1  UNL1        0.0257
     27 H           5.4467    1.7192    0.0000 H       1  UNL1        0.0257
     28 H           5.4467    2.5960    0.0000 H       1  UNL1        0.0257
     29 H           4.5699    2.5960    0.0000 H       1  UNL1        0.0257
     30 H           2.0000   -2.4164    0.0000 H       1  UNL1        0.2099
@<TRIPOS>BOND
     1     1     4    1
     2     1     5    1
     3     2     6    1
     4     2    30    1
     5     3     5    1
     6     3     7    1
     7     3     8    1
     8     3    13    1
     9     4     6    1
    10     4     9    1
    11     4    10    1
    12     5    11    1
    13     5    12    1
    14     6     7    1
    15     6    14    1
    16     7    15    1
    17     7    16    1
    18     8     9    1
    19     8    17    1
    20     8    18    1
    21     9    19    1
    22     9    20    1
    23    10    21    1
    24    10    22    1
    25    10    23    1
    26    11    24    1
    27    11    25    1
    28    11    26    1
    29    12    27    1
    30    12    28    1
    31    12    29    1
