@<TRIPOS>MOLECULE
IMPHY015537
 39 38 0 0 0
SMALL
GASTEIGER

@<TRIPOS>ATOM
      1 O           2.5369    0.7500    0.0000 O.3     1  UNL1       -0.3950
      2 C           6.8671    0.2500    0.0000 C.3     1  UNL1       -0.0439
      3 C           7.7331    0.7500    0.0000 C.3     1  UNL1       -0.0505
      4 C           6.0010    0.7500    0.0000 C.3     1  UNL1       -0.0504
      5 C           8.5991    0.2500    0.0000 C.3     1  UNL1       -0.0526
      6 C           9.4651    0.7500    0.0000 C.3     1  UNL1       -0.0507
      7 C           5.1350    0.2500    0.0000 C.3     1  UNL1       -0.0507
      8 C          10.3312    0.2500    0.0000 C.3     1  UNL1       -0.0467
      9 C           6.8671   -0.7500    0.0000 C.3     1  UNL1       -0.0624
     10 C           4.2690    0.7500    0.0000 C.3     1  UNL1       -0.0297
     11 C          11.1972    0.7500    0.0000 C.3     1  UNL1       -0.0627
     12 C          10.3312   -0.7500    0.0000 C.3     1  UNL1       -0.0627
     13 C           3.4030    0.2500    0.0000 C.3     1  UNL1        0.0442
     14 H           6.3301   -0.0600    0.0000 H       1  UNL1        0.0298
     15 H           8.1316    1.2250    0.0000 H       1  UNL1        0.0268
     16 H           7.3346    1.2250    0.0000 H       1  UNL1        0.0268
     17 H           6.3996    1.2250    0.0000 H       1  UNL1        0.0268
     18 H           5.6025    1.2250    0.0000 H       1  UNL1        0.0268
     19 H           8.2006   -0.2249    0.0000 H       1  UNL1        0.0265
     20 H           8.9976   -0.2249    0.0000 H       1  UNL1        0.0265
     21 H           9.8637    1.2250    0.0000 H       1  UNL1        0.0268
     22 H           9.0666    1.2250    0.0000 H       1  UNL1        0.0268
     23 H           4.7365   -0.2249    0.0000 H       1  UNL1        0.0266
     24 H           5.5335   -0.2249    0.0000 H       1  UNL1        0.0266
     25 H          10.8681   -0.0600    0.0000 H       1  UNL1        0.0295
     26 H           6.2471   -0.7500    0.0000 H       1  UNL1        0.0232
     27 H           6.8671   -1.3700    0.0000 H       1  UNL1        0.0232
     28 H           7.4871   -0.7500    0.0000 H       1  UNL1        0.0232
     29 H           4.6675    1.2250    0.0000 H       1  UNL1        0.0287
     30 H           3.8705    1.2250    0.0000 H       1  UNL1        0.0287
     31 H          11.5072    0.2131    0.0000 H       1  UNL1        0.0232
     32 H          11.7341    1.0600    0.0000 H       1  UNL1        0.0232
     33 H          10.8872    1.2869    0.0000 H       1  UNL1        0.0232
     34 H           9.7112   -0.7500    0.0000 H       1  UNL1        0.0232
     35 H          10.3312   -1.3700    0.0000 H       1  UNL1        0.0232
     36 H          10.9512   -0.7500    0.0000 H       1  UNL1        0.0232
     37 H           3.0044   -0.2249    0.0000 H       1  UNL1        0.0557
     38 H           3.8015   -0.2249    0.0000 H       1  UNL1        0.0557
     39 H           2.0000    0.4400    0.0000 H       1  UNL1        0.2094
@<TRIPOS>BOND
     1     1    13    1
     2     1    39    1
     3     2     3    1
     4     2     4    1
     5     2     9    1
     6     2    14    1
     7     3     5    1
     8     3    15    1
     9     3    16    1
    10     4     7    1
    11     4    17    1
    12     4    18    1
    13     5     6    1
    14     5    19    1
    15     5    20    1
    16     6     8    1
    17     6    21    1
    18     6    22    1
    19     7    10    1
    20     7    23    1
    21     7    24    1
    22     8    11    1
    23     8    12    1
    24     8    25    1
    25     9    26    1
    26     9    27    1
    27     9    28    1
    28    10    13    1
    29    10    29    1
    30    10    30    1
    31    11    31    1
    32    11    32    1
    33    11    33    1
    34    12    34    1
    35    12    35    1
    36    12    36    1
    37    13    37    1
    38    13    38    1
