@<TRIPOS>MOLECULE
IMPHY001167
 80 84 0 0 0
SMALL
GASTEIGER

@<TRIPOS>ATOM
      1 O           2.3079   -2.3868    0.0000 O.3     1  UNL1       -0.4802
      2 O           3.8112   -3.2470    0.0000 O.2     1  UNL1       -0.2504
      3 C           7.3901    1.5832    0.0000 C.3     1  UNL1       -0.0194
      4 C           7.3901    0.5832    0.0000 C.3     1  UNL1       -0.0196
      5 C           8.2840    2.1178    0.0000 C.3     1  UNL1       -0.0292
      6 C           9.1901    1.6040    0.0000 C.3     1  UNL1       -0.0256
      7 C           6.5241    0.0832    0.0000 C.3     1  UNL1       -0.0135
      8 C           9.9524    2.3047    0.0000 C.3     1  UNL1       -0.0330
      9 C           8.2840    0.0485    0.0000 C.3     1  UNL1       -0.0461
     10 C           9.1901    0.5624    0.0000 C.3     1  UNL1       -0.0466
     11 C           8.4941    3.1318    0.0000 C.3     1  UNL1       -0.0489
     12 C           6.5241    2.0832    0.0000 C.3     1  UNL1       -0.0283
     13 C           5.6580    0.5832    0.0000 C.2     1  UNL1       -0.0636
     14 C           4.7480    0.0763    0.0000 C.3     1  UNL1       -0.0070
     15 C           9.5232    3.2470    0.0000 C.3     1  UNL1       -0.0492
     16 C           4.7400   -0.9653    0.0000 C.3     1  UNL1       -0.0164
     17 C           6.5401   -0.9583    0.0000 C.3     1  UNL1       -0.0457
     18 C           7.3901    2.5832    0.0000 C.3     1  UNL1       -0.0585
     19 C           7.3901   -0.4168    0.0000 C.3     1  UNL1       -0.0585
     20 C          10.0599    1.1107    0.0000 C.3     1  UNL1       -0.0590
     21 C           5.6580    1.5832    0.0000 C.2     1  UNL1       -0.0834
     22 C           5.6421   -1.4861    0.0000 C.3     1  UNL1       -0.0479
     23 C          10.9325    2.1061    0.0000 C.3     1  UNL1       -0.0434
     24 C           3.8046   -1.5150    0.0000 C.3     1  UNL1        0.0684
     25 C           3.8212    0.6404    0.0000 C.3     1  UNL1       -0.0436
     26 C           4.7557    1.0763    0.0000 C.3     1  UNL1       -0.0555
     27 C           2.8650   -0.9725    0.0000 C.3     1  UNL1       -0.0372
     28 C           2.8733    0.1125    0.0000 C.3     1  UNL1       -0.0513
     29 C          11.5946    2.8555    0.0000 C.3     1  UNL1       -0.0624
     30 C          11.2505    1.1580    0.0000 C.3     1  UNL1       -0.0624
     31 C           4.3079   -2.3791    0.0000 C.3     1  UNL1       -0.0491
     32 C           3.3079   -2.3830    0.0000 C.2     1  UNL1        0.3110
     33 H           9.0583    2.4685    0.0000 H       1  UNL1        0.0312
     34 H           7.2634   -0.3361    0.0000 H       1  UNL1        0.0351
     35 H          10.3382    2.7901    0.0000 H       1  UNL1        0.0309
     36 H           7.8794   -0.4213    0.0000 H       1  UNL1        0.0271
     37 H           8.6776   -0.4305    0.0000 H       1  UNL1        0.0271
     38 H           9.3992   -0.0213    0.0000 H       1  UNL1        0.0271
     39 H           9.8010    0.6684    0.0000 H       1  UNL1        0.0271
     40 H           8.4902    3.7517    0.0000 H       1  UNL1        0.0268
     41 H           7.8772    3.1930    0.0000 H       1  UNL1        0.0268
     42 H           6.9226    2.5581    0.0000 H       1  UNL1        0.0313
     43 H           6.1255    2.5581    0.0000 H       1  UNL1        0.0313
     44 H          10.1113    3.4433    0.0000 H       1  UNL1        0.0268
     45 H           9.3898    3.8525    0.0000 H       1  UNL1        0.0268
     46 H           4.7433   -1.8153    0.0000 H       1  UNL1        0.0320
     47 H           6.7582   -1.5387    0.0000 H       1  UNL1        0.0271
     48 H           7.1493   -0.8428    0.0000 H       1  UNL1        0.0271
     49 H           8.0101    2.5832    0.0000 H       1  UNL1        0.0235
     50 H           7.3901    3.2032    0.0000 H       1  UNL1        0.0235
     51 H           6.7701    2.5832    0.0000 H       1  UNL1        0.0235
     52 H           6.7701   -0.4168    0.0000 H       1  UNL1        0.0235
     53 H           7.3901   -1.0368    0.0000 H       1  UNL1        0.0235
     54 H           8.0101   -0.4168    0.0000 H       1  UNL1        0.0235
     55 H           9.7541    0.5714    0.0000 H       1  UNL1        0.0235
     56 H          10.5993    0.8048    0.0000 H       1  UNL1        0.0235
     57 H          10.3658    1.6500    0.0000 H       1  UNL1        0.0235
     58 H           5.1211    1.8932    0.0000 H       1  UNL1        0.0572
     59 H           5.2448   -1.9621    0.0000 H       1  UNL1        0.0269
     60 H           6.0430   -1.9590    0.0000 H       1  UNL1        0.0269
     61 H          10.5220    1.6414    0.0000 H       1  UNL1        0.0298
     62 H           4.2294    1.1071    0.0000 H       1  UNL1        0.0274
     63 H           3.4313    1.1224    0.0000 H       1  UNL1        0.0274
     64 H           5.3757    1.0715    0.0000 H       1  UNL1        0.0238
     65 H           4.7605    1.6963    0.0000 H       1  UNL1        0.0238
     66 H           4.1358    1.0811    0.0000 H       1  UNL1        0.0238
     67 H           2.2549   -0.8617    0.0000 H       1  UNL1        0.0276
     68 H           2.6514   -1.5546    0.0000 H       1  UNL1        0.0276
     69 H           2.6688    0.6977    0.0000 H       1  UNL1        0.0266
     70 H           2.2616    0.0111    0.0000 H       1  UNL1        0.0266
     71 H          10.6626    0.9608    0.0000 H       1  UNL1        0.0232
     72 H          11.4476    0.5702    0.0000 H       1  UNL1        0.0232
     73 H          12.0592    2.4450    0.0000 H       1  UNL1        0.0232
     74 H          12.0051    3.3201    0.0000 H       1  UNL1        0.0232
     75 H          11.8383    1.3551    0.0000 H       1  UNL1        0.0232
     76 H          11.1299    3.2660    0.0000 H       1  UNL1        0.0232
     77 H           3.7722   -2.6912    0.0000 H       1  UNL1        0.0240
     78 H           4.6200   -2.9148    0.0000 H       1  UNL1        0.0240
     79 H           4.8436   -2.0670    0.0000 H       1  UNL1        0.0240
     80 H           2.0000   -2.9249    0.0000 H       1  UNL1        0.2951
@<TRIPOS>BOND
     1     1    32    1
     2     1    80    1
     3     2    32    2
     4     3     4    1
     5     3     5    1
     6     3    12    1
     7     3    18    1
     8     4     7    1
     9     4     9    1
    10     4    19    1
    11     5     6    1
    12     5    11    1
    13     5    33    1
    14     6     8    1
    15     6    10    1
    16     6    20    1
    17     7    13    1
    18     7    17    1
    19     7    34    1
    20     8    15    1
    21     8    23    1
    22     8    35    1
    23     9    10    1
    24     9    36    1
    25     9    37    1
    26    10    38    1
    27    10    39    1
    28    11    15    1
    29    11    40    1
    30    11    41    1
    31    12    21    1
    32    12    42    1
    33    12    43    1
    34    13    14    1
    35    13    21    2
    36    14    16    1
    37    14    25    1
    38    14    26    1
    39    15    44    1
    40    15    45    1
    41    16    22    1
    42    16    24    1
    43    16    46    1
    44    17    22    1
    45    17    47    1
    46    17    48    1
    47    18    49    1
    48    18    50    1
    49    18    51    1
    50    19    52    1
    51    19    53    1
    52    19    54    1
    53    20    55    1
    54    20    56    1
    55    20    57    1
    56    21    58    1
    57    22    59    1
    58    22    60    1
    59    23    29    1
    60    23    30    1
    61    23    61    1
    62    24    27    1
    63    24    31    1
    64    24    32    1
    65    25    28    1
    66    25    62    1
    67    25    63    1
    68    26    64    1
    69    26    65    1
    70    26    66    1
    71    27    28    1
    72    27    67    1
    73    27    68    1
    74    28    69    1
    75    28    70    1
    76    29    73    1
    77    29    74    1
    78    29    76    1
    79    30    71    1
    80    30    72    1
    81    30    75    1
    82    31    77    1
    83    31    78    1
    84    31    79    1
