@<TRIPOS>MOLECULE
IMPHY000205
 42 44 0 0 0
SMALL
GASTEIGER

@<TRIPOS>ATOM
      1 O           5.5220    0.3015    0.0000 O.3     1  UNL1       -0.4594
      2 O           2.9239   -0.1985    0.0000 O.3     1  UNL1       -0.4582
      3 O           3.0035   -2.6842    0.0000 O.3     1  UNL1       -0.3774
      4 O           6.9662   -0.7860    0.0000 O.2     1  UNL1       -0.2508
      5 O           2.0000   -1.5811    0.0000 O.2     1  UNL1       -0.2476
      6 N           4.8651    2.7734    0.0000 N.3     1  UNL1       -0.2886
      7 C           4.6559    1.8015    0.0000 C.3     1  UNL1        0.0723
      8 C           5.5220    1.3015    0.0000 C.3     1  UNL1        0.1235
      9 C           6.2590    1.9686    0.0000 C.3     1  UNL1       -0.0010
     10 C           5.8539    2.8764    0.0000 C.3     1  UNL1        0.0033
     11 C           3.7899    1.3015    0.0000 C.2     1  UNL1       -0.0148
     12 C           5.3695    1.9005    0.0000 C.3     1  UNL1        0.0182
     13 C           4.7748    1.0864    0.0000 C.2     1  UNL1       -0.0660
     14 C           3.7899    0.3015    0.0000 C.3     1  UNL1        0.1153
     15 C           4.6310   -1.9056    0.0000 C.3     1  UNL1        0.0053
     16 C           3.6310   -1.9056    0.0000 C.3     1  UNL1        0.1622
     17 C           5.1310   -1.0395    0.0000 C.3     1  UNL1        0.0506
     18 C           5.9970   -0.5395    0.0000 C.2     1  UNL1        0.3078
     19 C           2.9239   -1.1985    0.0000 C.2     1  UNL1        0.3394
     20 C           5.1310   -2.7716    0.0000 C.3     1  UNL1       -0.0588
     21 C           3.8707   -2.8764    0.0000 C.3     1  UNL1       -0.0253
     22 H           4.2309    2.5377    0.0000 H       1  UNL1        0.0547
     23 H           6.2989    0.9568    0.0000 H       1  UNL1        0.0753
     24 H           6.6244    1.4678    0.0000 H       1  UNL1        0.0314
     25 H           6.7955    2.2794    0.0000 H       1  UNL1        0.0314
     26 H           6.4435    3.0682    0.0000 H       1  UNL1        0.0428
     27 H           5.7251    3.4829    0.0000 H       1  UNL1        0.0428
     28 H           5.8148    1.4691    0.0000 H       1  UNL1        0.0470
     29 H           5.8583    2.2819    0.0000 H       1  UNL1        0.0470
     30 H           4.9946    0.5067    0.0000 H       1  UNL1        0.0586
     31 H           4.0020   -0.2811    0.0000 H       1  UNL1        0.0746
     32 H           4.4005    0.4092    0.0000 H       1  UNL1        0.0746
     33 H           5.2510   -1.9056    0.0000 H       1  UNL1        0.0336
     34 H           5.0233   -0.4290    0.0000 H       1  UNL1        0.0381
     35 H           5.5694   -1.4780    0.0000 H       1  UNL1        0.0381
     36 H           4.5940   -3.0816    0.0000 H       1  UNL1        0.0234
     37 H           5.4410   -3.3085    0.0000 H       1  UNL1        0.0234
     38 H           5.6679   -2.4616    0.0000 H       1  UNL1        0.0234
     39 H           3.2688   -3.0250    0.0000 H       1  UNL1        0.0263
     40 H           4.0193   -3.4783    0.0000 H       1  UNL1        0.0263
     41 H           4.4726   -2.7278    0.0000 H       1  UNL1        0.0263
     42 H           2.3909   -2.5887    0.0000 H       1  UNL1        0.2109
@<TRIPOS>BOND
     1     1     8    1
     2     1    18    1
     3     2    14    1
     4     2    19    1
     5    16     3    1
     6     3    42    1
     7     4    18    2
     8     5    19    2
     9     6     7    1
    10     6    10    1
    11     6    12    1
    12     7     8    1
    13     7    11    1
    14     7    22    1
    15     8     9    1
    16     8    23    1
    17     9    10    1
    18     9    24    1
    19     9    25    1
    20    10    26    1
    21    10    27    1
    22    11    13    2
    23    11    14    1
    24    12    13    1
    25    12    28    1
    26    12    29    1
    27    13    30    1
    28    14    31    1
    29    14    32    1
    30    15    16    1
    31    15    17    1
    32    15    20    1
    33    15    33    1
    34    16    19    1
    35    16    21    1
    36    17    18    1
    37    17    34    1
    38    17    35    1
    39    20    36    1
    40    20    37    1
    41    20    38    1
    42    21    39    1
    43    21    40    1
    44    21    41    1
