@<TRIPOS>MOLECULE
IMPHY016361
 17 17 0 0 0
SMALL
GASTEIGER

@<TRIPOS>ATOM
      1 N           3.7320   -1.5000    0.0000 N.ar    1  UNL1       -0.2630
      2 C           2.0000    0.5000    0.0000 C.3     1  UNL1       -0.0291
      3 C           2.8660    0.0000    0.0000 C.ar    1  UNL1       -0.0295
      4 C           2.0000    1.5000    0.0000 C.3     1  UNL1       -0.0612
      5 C           3.7320    0.5000    0.0000 C.ar    1  UNL1       -0.0557
      6 C           2.8660   -1.0000    0.0000 C.ar    1  UNL1        0.0307
      7 C           4.5981    0.0000    0.0000 C.ar    1  UNL1       -0.0433
      8 C           4.5981   -1.0000    0.0000 C.ar    1  UNL1        0.0276
      9 H           1.3894    0.6077    0.0000 H       1  UNL1        0.0311
     10 H           1.7880   -0.0826    0.0000 H       1  UNL1        0.0311
     11 H           2.6200    1.5000    0.0000 H       1  UNL1        0.0233
     12 H           2.0000    2.1200    0.0000 H       1  UNL1        0.0233
     13 H           1.3800    1.5000    0.0000 H       1  UNL1        0.0233
     14 H           3.7320    1.1200    0.0000 H       1  UNL1        0.0621
     15 H           2.3291   -1.3100    0.0000 H       1  UNL1        0.0832
     16 H           5.1350    0.3100    0.0000 H       1  UNL1        0.0633
     17 H           5.1350   -1.3100    0.0000 H       1  UNL1        0.0829
@<TRIPOS>BOND
     1     1     6   ar
     2     1     8   ar
     3     2     3    1
     4     2     4    1
     5     2     9    1
     6     2    10    1
     7     3     5   ar
     8     3     6   ar
     9     4    11    1
    10     4    12    1
    11     4    13    1
    12     5     7   ar
    13     5    14    1
    14     6    15    1
    15     7     8   ar
    16     7    16    1
    17     8    17    1
