@<TRIPOS>MOLECULE
IMPHY001931
 19 19 0 0 0
SMALL
GASTEIGER

@<TRIPOS>ATOM
      1 O           4.2690    1.7500    0.0000 O.3     1  UNL1       -0.4914
      2 O           2.5369    0.7500    0.0000 O.3     1  UNL1       -0.5033
      3 O           6.0010   -2.2500    0.0000 O.2     1  UNL1       -0.2957
      4 C           4.2690    0.7500    0.0000 C.ar    1  UNL1        0.1619
      5 C           5.1350   -0.7500    0.0000 C.ar    1  UNL1        0.0179
      6 C           5.1350    0.2500    0.0000 C.ar    1  UNL1       -0.0061
      7 C           3.4030    0.2500    0.0000 C.ar    1  UNL1        0.1585
      8 C           4.2690   -1.2500    0.0000 C.ar    1  UNL1       -0.0479
      9 C           3.4030   -0.7500    0.0000 C.ar    1  UNL1       -0.0159
     10 C           6.0010   -1.2500    0.0000 C.2     1  UNL1        0.1503
     11 C           5.1350    2.2500    0.0000 C.3     1  UNL1        0.0790
     12 H           5.6720    0.5600    0.0000 H       1  UNL1        0.0662
     13 H           4.2690   -1.8700    0.0000 H       1  UNL1        0.0626
     14 H           2.8660   -1.0600    0.0000 H       1  UNL1        0.0655
     15 H           6.5380   -0.9400    0.0000 H       1  UNL1        0.1081
     16 H           5.4450    1.7131    0.0000 H       1  UNL1        0.0660
     17 H           5.6720    2.5600    0.0000 H       1  UNL1        0.0660
     18 H           4.8250    2.7869    0.0000 H       1  UNL1        0.0660
     19 H           2.0000    0.4400    0.0000 H       1  UNL1        0.2923
@<TRIPOS>BOND
     1     1     4    1
     2     1    11    1
     3     2     7    1
     4     2    19    1
     5     3    10    2
     6     4     6   ar
     7     4     7   ar
     8     5     6   ar
     9     5     8   ar
    10     5    10    1
    11     6    12    1
    12     7     9   ar
    13     8     9   ar
    14     8    13    1
    15     9    14    1
    16    10    15    1
    17    11    16    1
    18    11    17    1
    19    11    18    1
