@<TRIPOS>MOLECULE
IMPHY010023
 33 35 0 0 0
SMALL
GASTEIGER

@<TRIPOS>ATOM
      1 O           5.3923   -1.7601    0.0000 O.2     1  UNL1       -0.4907
      2 O           4.5274    2.5109    0.0000 O.2     1  UNL1       -0.2866
      3 O           7.3991   -1.3497    0.0000 O.2     1  UNL1       -0.4884
      4 O           8.0321    0.5984    0.0000 O.2     1  UNL1       -0.2839
      5 N           3.3424   -0.8127    0.0000 N.pl3   1  UNL1       -0.3194
      6 C           5.0274   -0.0279    0.0000 C.2     1  UNL1        0.0531
      7 C           4.0274   -0.0279    0.0000 C.2     1  UNL1        0.0537
      8 C           3.7183    0.9231    0.0000 C.2     1  UNL1        0.0470
      9 C           5.3364    0.9231    0.0000 C.2     1  UNL1        0.0386
     10 C           4.5274    1.5109    0.0000 C.2     1  UNL1        0.1960
     11 C           2.7029    1.1554    0.0000 C.2     1  UNL1       -0.0367
     12 C           5.7123   -0.8127    0.0000 C.2     1  UNL1        0.1749
     13 C           6.3518    1.1554    0.0000 C.2     1  UNL1        0.0005
     14 C           6.7328   -0.6040    0.0000 C.2     1  UNL1        0.2093
     15 C           2.0000    0.3867    0.0000 C.2     1  UNL1       -0.0443
     16 C           7.0547    0.3867    0.0000 C.2     1  UNL1        0.2246
     17 C           2.3219   -0.6040    0.0000 C.2     1  UNL1       -0.0059
     18 C           2.4049    2.1100    0.0000 C.3     1  UNL1       -0.0389
     19 C           6.0528   -2.5109    0.0000 C.3     1  UNL1        0.0790
     20 C           8.3780   -1.1455    0.0000 C.3     1  UNL1        0.0791
     21 H           3.5408   -1.4001    0.0000 H       1  UNL1        0.1516
     22 H           6.5365    1.7472    0.0000 H       1  UNL1        0.0664
     23 H           1.3940    0.5179    0.0000 H       1  UNL1        0.0633
     24 H           1.9088   -1.0663    0.0000 H       1  UNL1        0.0781
     25 H           2.9968    2.2947    0.0000 H       1  UNL1        0.0278
     26 H           2.2202    2.7018    0.0000 H       1  UNL1        0.0278
     27 H           1.8131    1.9252    0.0000 H       1  UNL1        0.0278
     28 H           5.5873   -2.9204    0.0000 H       1  UNL1        0.0660
     29 H           6.4623   -2.9764    0.0000 H       1  UNL1        0.0660
     30 H           6.5183   -2.1014    0.0000 H       1  UNL1        0.0660
     31 H           8.5046   -1.7525    0.0000 H       1  UNL1        0.0660
     32 H           8.9850   -1.0190    0.0000 H       1  UNL1        0.0660
     33 H           8.2515   -0.5386    0.0000 H       1  UNL1        0.0660
@<TRIPOS>BOND
     1     1    12    1
     2     1    19    1
     3     2    10    2
     4     3    14    1
     5     3    20    1
     6     4    16    2
     7     5     7    1
     8     5    17    1
     9     5    21    1
    10     6     7    2
    11     6     9    1
    12     6    12    1
    13     7     8    1
    14     8    10    1
    15     8    11    2
    16     9    10    1
    17     9    13    2
    18    11    15    1
    19    11    18    1
    20    12    14    2
    21    13    16    1
    22    13    22    1
    23    14    16    1
    24    15    17    2
    25    15    23    1
    26    17    24    1
    27    18    25    1
    28    18    26    1
    29    18    27    1
    30    19    28    1
    31    19    29    1
    32    19    30    1
    33    20    31    1
    34    20    32    1
    35    20    33    1
