@<TRIPOS>MOLECULE
IMPHY004302
 54 53 0 0 0
SMALL
GASTEIGER

@<TRIPOS>ATOM
      1 O           3.7320   -1.8100    0.0000 O.3     1  UNL1       -0.4806
      2 O           4.5981   -3.3100    0.0000 O.2     1  UNL1       -0.2510
      3 C           4.5981    0.6900    0.0000 C.3     1  UNL1       -0.0496
      4 C           3.7320    1.1900    0.0000 C.3     1  UNL1       -0.0530
      5 C           5.4641    1.1900    0.0000 C.3     1  UNL1       -0.0348
      6 C           2.8660    0.6900    0.0000 C.3     1  UNL1       -0.0559
      7 C           5.4641    2.1900    0.0000 C.2     1  UNL1       -0.0876
      8 C           2.0000    1.1900    0.0000 C.3     1  UNL1       -0.0653
      9 C           6.3301   -2.3100    0.0000 C.3     1  UNL1       -0.0395
     10 C           7.1962   -1.8100    0.0000 C.3     1  UNL1       -0.0343
     11 C           6.3301    2.6900    0.0000 C.2     1  UNL1       -0.0842
     12 C           7.1962    2.1900    0.0000 C.3     1  UNL1       -0.0165
     13 C           5.4641   -1.8100    0.0000 C.3     1  UNL1        0.0451
     14 C           8.0622   -2.3100    0.0000 C.2     1  UNL1       -0.0876
     15 C           8.9282   -0.8100    0.0000 C.3     1  UNL1       -0.0165
     16 C           8.0622    2.6900    0.0000 C.2     1  UNL1       -0.0839
     17 C           8.9282   -1.8100    0.0000 C.2     1  UNL1       -0.0842
     18 C           8.9282    1.1900    0.0000 C.3     1  UNL1       -0.0165
     19 C           8.9282    2.1900    0.0000 C.2     1  UNL1       -0.0839
     20 C           9.7942   -0.3100    0.0000 C.2     1  UNL1       -0.0839
     21 C           9.7942    0.6900    0.0000 C.2     1  UNL1       -0.0839
     22 C           4.5981   -2.3100    0.0000 C.2     1  UNL1        0.3047
     23 H           4.1996    0.2151    0.0000 H       1  UNL1        0.0268
     24 H           4.9966    0.2151    0.0000 H       1  UNL1        0.0268
     25 H           4.1306    1.6650    0.0000 H       1  UNL1        0.0265
     26 H           3.3335    1.6650    0.0000 H       1  UNL1        0.0265
     27 H           5.6762    0.6074    0.0000 H       1  UNL1        0.0307
     28 H           6.0747    1.2977    0.0000 H       1  UNL1        0.0307
     29 H           2.4675    0.2151    0.0000 H       1  UNL1        0.0263
     30 H           3.2646    0.2151    0.0000 H       1  UNL1        0.0263
     31 H           4.9272    2.5000    0.0000 H       1  UNL1        0.0569
     32 H           2.3100    1.7269    0.0000 H       1  UNL1        0.0230
     33 H           1.4631    1.5000    0.0000 H       1  UNL1        0.0230
     34 H           1.6900    0.6531    0.0000 H       1  UNL1        0.0230
     35 H           5.9316   -2.7849    0.0000 H       1  UNL1        0.0273
     36 H           6.7287   -2.7849    0.0000 H       1  UNL1        0.0273
     37 H           7.5947   -1.3350    0.0000 H       1  UNL1        0.0307
     38 H           6.7976   -1.3350    0.0000 H       1  UNL1        0.0307
     39 H           6.3301    3.3100    0.0000 H       1  UNL1        0.0572
     40 H           6.7976    1.7150    0.0000 H       1  UNL1        0.0350
     41 H           7.5947    1.7150    0.0000 H       1  UNL1        0.0350
     42 H           5.8626   -1.3350    0.0000 H       1  UNL1        0.0378
     43 H           5.0656   -1.3350    0.0000 H       1  UNL1        0.0378
     44 H           8.0622   -2.9300    0.0000 H       1  UNL1        0.0569
     45 H           8.7162   -0.2274    0.0000 H       1  UNL1        0.0350
     46 H           8.3176   -0.9177    0.0000 H       1  UNL1        0.0350
     47 H           9.4651   -2.1200    0.0000 H       1  UNL1        0.0572
     48 H           8.0622    3.3100    0.0000 H       1  UNL1        0.0572
     49 H           8.3176    1.2977    0.0000 H       1  UNL1        0.0350
     50 H           8.7162    0.6074    0.0000 H       1  UNL1        0.0350
     51 H           9.4651    2.5000    0.0000 H       1  UNL1        0.0572
     52 H          10.3312   -0.6200    0.0000 H       1  UNL1        0.0572
     53 H          10.3312    1.0000    0.0000 H       1  UNL1        0.0572
     54 H           3.1951   -2.1200    0.0000 H       1  UNL1        0.2951
@<TRIPOS>BOND
     1     1    22    1
     2     1    54    1
     3     2    22    2
     4     3     4    1
     5     3     5    1
     6     3    23    1
     7     3    24    1
     8     4     6    1
     9     4    25    1
    10     4    26    1
    11     5     7    1
    12     5    27    1
    13     5    28    1
    14     6     8    1
    15     6    29    1
    16     6    30    1
    17     7    11    2
    18     7    31    1
    19     8    32    1
    20     8    33    1
    21     8    34    1
    22     9    10    1
    23     9    13    1
    24     9    35    1
    25     9    36    1
    26    10    14    1
    27    10    37    1
    28    10    38    1
    29    11    12    1
    30    11    39    1
    31    12    16    1
    32    12    40    1
    33    12    41    1
    34    13    22    1
    35    13    42    1
    36    13    43    1
    37    14    17    2
    38    14    44    1
    39    15    17    1
    40    15    20    1
    41    15    45    1
    42    15    46    1
    43    16    19    2
    44    16    48    1
    45    17    47    1
    46    18    19    1
    47    18    21    1
    48    18    49    1
    49    18    50    1
    50    19    51    1
    51    20    21    2
    52    20    52    1
    53    21    53    1
