@<TRIPOS>MOLECULE
IMPHY000489
 30 33 0 0 0
SMALL
GASTEIGER

@<TRIPOS>ATOM
      1 C          -2.6248    3.3320    0.0000 C.3     1  UNL1        0.0283
      2 C          -6.9171    2.8101    0.0000 C.3     1  UNL1        0.0144
      3 C          -3.4909   -0.1680    0.0000 C.3     1  UNL1        0.0041
      4 C          -1.7588    0.8320    0.0000 C.3     1  UNL1        0.0342
      5 C          -2.6248    0.3320    0.0000 C.3     1  UNL1        0.0067
      6 C          -4.3569    0.3320    0.0000 C.3     1  UNL1        0.0065
      7 C          -5.2229    0.8320    0.0000 C.3     1  UNL1        0.0353
      8 C           1.6730   -0.9659    0.0000 C.3     1  UNL1        0.2142
      9 C          -2.6248    2.3320    0.0000 C.2     1  UNL1       -0.0217
     10 C          -5.9661    2.5011    0.0000 C.3     1  UNL1        0.1307
     11 C          -1.7588    1.8320    0.0000 C.3     1  UNL1        0.1357
     12 C           0.9659   -0.2588    0.0000 C.3     1  UNL1        0.1835
     13 C          -3.4909    1.8320    0.0000 C.2     1  UNL1       -0.0087
     14 C           1.6730    0.4483    0.0000 C.3     1  UNL1        0.2144
     15 C           1.4142    1.4142    0.0000 C.3     1  UNL1        0.2198
     16 C           0.4483    1.6730    0.0000 C.3     1  UNL1        0.2406
     17 C          -4.3569    2.3320    0.0000 C.3     1  UNL1        0.2147
     18 C          -5.5593    3.4146    0.0000 C.2     1  UNL1        0.3193
     19 C          -0.2588    0.9659    0.0000 C.3     1  UNL1        0.2697
     20 C          -3.4909    0.8320    0.0000 C.3     1  UNL1        0.0182
     21 C          -5.2229    1.8320    0.0000 C.3     1  UNL1        0.1766
     22 O           2.6390   -0.7071    0.0000 O.3     1  UNL1       -0.2176
     23 O           2.6390    0.7071    0.0000 O.3     1  UNL1       -0.2176
     24 O           1.6730    2.3801    0.0000 O.3     1  UNL1       -0.2174
     25 O          -0.2588    2.3801    0.0000 O.3     1  UNL1       -0.2149
     26 O          -6.0593    4.2807    0.0000 O.2     1  UNL1       -0.2500
     27 O          -5.8107    1.0229    0.0000 O.3     1  UNL1       -0.2210
     28 O          -0.7588    1.8320    0.0000 O.3     1  UNL1       -0.3269
     29 O           0.0000    0.0000    0.0000 O.3     1  UNL1       -0.3256
     30 O          -4.5648    3.3101    0.0000 O.3     1  UNL1       -0.4454
@<TRIPOS>BOND
     1     1     9    1
     2     2    10    1
     3     3    20    1
     4     4     5    1
     5     4    11    1
     6     5    20    1
     7     6     7    1
     8     6    20    1
     9     7    21    1
    10     8    12    1
    11     8    22    1
    12     9    11    1
    13     9    13    2
    14    10    18    1
    15    10    21    1
    16    11    28    1
    17    12    14    1
    18    12    29    1
    19    13    17    1
    20    13    20    1
    21    14    15    1
    22    14    23    1
    23    15    16    1
    24    15    24    1
    25    16    19    1
    26    16    25    1
    27    17    21    1
    28    17    30    1
    29    18    26    2
    30    18    30    1
    31    19    28    1
    32    19    29    1
    33    21    27    1
