@<TRIPOS>MOLECULE
IMPHY001306
 50 52 0 0 0
SMALL
GASTEIGER

@<TRIPOS>ATOM
      1 O           2.5381   -1.8556    0.0000 O.3     1  UNL1       -0.3837
      2 O           2.5381    0.1927    0.0000 O.2     1  UNL1       -0.2946
      3 O           8.7045   -0.3346    0.0000 O.3     1  UNL1       -0.3859
      4 O           6.9464    2.7378    0.0000 O.2     1  UNL1       -0.2917
      5 C           5.2022   -1.3314    0.0000 C.3     1  UNL1       -0.0199
      6 C           5.2022   -0.3314    0.0000 C.3     1  UNL1        0.0038
      7 C           4.3083   -1.8661    0.0000 C.3     1  UNL1        0.0019
      8 C           4.3083    0.2032    0.0000 C.3     1  UNL1        0.0181
      9 C           6.0682   -1.8314    0.0000 C.3     1  UNL1       -0.0299
     10 C           3.4022   -1.3522    0.0000 C.3     1  UNL1        0.1184
     11 C           6.0682    0.1686    0.0000 C.2     1  UNL1       -0.0321
     12 C           6.9343   -0.3314    0.0000 C.2     1  UNL1       -0.0180
     13 C           5.2022    0.6686    0.0000 C.3     1  UNL1       -0.0549
     14 C           3.4022   -0.3106    0.0000 C.2     1  UNL1        0.1629
     15 C           3.8183   -2.7378    0.0000 C.3     1  UNL1       -0.0568
     16 C           4.8183   -2.7263    0.0000 C.3     1  UNL1       -0.0568
     17 C           6.9343   -1.3314    0.0000 C.2     1  UNL1       -0.0778
     18 C           7.8443    0.1754    0.0000 C.3     1  UNL1        0.0959
     19 C           7.8523    1.2170    0.0000 C.3     1  UNL1        0.0778
     20 C           6.0522    1.2101    0.0000 C.2     1  UNL1       -0.0142
     21 C           6.9502    1.7378    0.0000 C.2     1  UNL1        0.1687
     22 C           8.8523    1.2132    0.0000 C.3     1  UNL1       -0.0463
     23 C           8.3556    2.0811    0.0000 C.2     1  UNL1       -0.0751
     24 C           9.3556    2.0773    0.0000 C.2     1  UNL1       -0.1016
     25 H           5.2088   -2.1814    0.0000 H       1  UNL1        0.0318
     26 H           4.7129    0.6730    0.0000 H       1  UNL1        0.0351
     27 H           3.9147    0.6823    0.0000 H       1  UNL1        0.0351
     28 H           5.6697   -2.3064    0.0000 H       1  UNL1        0.0311
     29 H           6.4668   -2.3064    0.0000 H       1  UNL1        0.0311
     30 H           2.8647   -1.0433    0.0000 H       1  UNL1        0.0678
     31 H           5.8222    0.6686    0.0000 H       1  UNL1        0.0238
     32 H           5.2022    1.2886    0.0000 H       1  UNL1        0.0238
     33 H           4.5822    0.6686    0.0000 H       1  UNL1        0.0238
     34 H           3.2778   -2.4341    0.0000 H       1  UNL1        0.0236
     35 H           3.5146   -3.2783    0.0000 H       1  UNL1        0.0236
     36 H           4.3588   -3.0416    0.0000 H       1  UNL1        0.0236
     37 H           4.2850   -3.0425    0.0000 H       1  UNL1        0.0236
     38 H           5.1344   -3.2596    0.0000 H       1  UNL1        0.0236
     39 H           5.3516   -2.4101    0.0000 H       1  UNL1        0.0236
     40 H           7.4712   -1.6414    0.0000 H       1  UNL1        0.0576
     41 H           8.3842    0.4802    0.0000 H       1  UNL1        0.0656
     42 H           5.5117    1.5139    0.0000 H       1  UNL1        0.0656
     43 H           2.0000   -1.5476    0.0000 H       1  UNL1        0.2104
     44 H           8.8499    0.5932    0.0000 H       1  UNL1        0.0243
     45 H           9.4723    1.2108    0.0000 H       1  UNL1        0.0243
     46 H           8.8547    1.8332    0.0000 H       1  UNL1        0.0243
     47 H           8.0477    2.6192    0.0000 H       1  UNL1        0.0577
     48 H           8.6973   -0.9545    0.0000 H       1  UNL1        0.2103
     49 H           9.6636    1.5391    0.0000 H       1  UNL1        0.0532
     50 H           9.6677    2.6130    0.0000 H       1  UNL1        0.0532
@<TRIPOS>BOND
     1    10     1    1
     2     1    43    1
     3     2    14    2
     4    18     3    1
     5     3    48    1
     6     4    21    2
     7     5     6    1
     8     5     7    1
     9     5     9    1
    10     5    25    1
    11     6     8    1
    12     6    11    1
    13     6    13    1
    14     7    10    1
    15     7    15    1
    16     7    16    1
    17     8    14    1
    18     8    26    1
    19     8    27    1
    20     9    17    1
    21     9    28    1
    22     9    29    1
    23    10    14    1
    24    10    30    1
    25    11    12    1
    26    11    20    2
    27    12    17    2
    28    12    18    1
    29    13    31    1
    30    13    32    1
    31    13    33    1
    32    15    34    1
    33    15    35    1
    34    15    36    1
    35    16    37    1
    36    16    38    1
    37    16    39    1
    38    17    40    1
    39    18    19    1
    40    18    41    1
    41    19    21    1
    42    19    22    1
    43    19    23    1
    44    20    21    1
    45    20    42    1
    46    22    44    1
    47    22    45    1
    48    22    46    1
    49    23    24    2
    50    23    47    1
    51    24    49    1
    52    24    50    1
