@<TRIPOS>MOLECULE
IMPHY004478
 36 38 0 0 0
SMALL
GASTEIGER

@<TRIPOS>ATOM
      1 O           6.4144    1.7623    0.0000 O.3     1  UNL1       -0.4939
      2 O           8.1962   -1.2964    0.0000 O.3     1  UNL1       -0.5063
      3 O           9.0641    0.2552    0.0000 O.3     1  UNL1       -0.3782
      4 O           4.6660    1.7277    0.0000 O.2     1  UNL1       -0.2865
      5 O           4.6660   -2.2723    0.0000 O.2     1  UNL1       -0.2866
      6 C           5.5321    0.2277    0.0000 C.ar    1  UNL1        0.0752
      7 C           5.5321   -0.7723    0.0000 C.ar    1  UNL1        0.0401
      8 C           6.4260    0.7624    0.0000 C.ar    1  UNL1        0.1404
      9 C           7.3321    0.2485    0.0000 C.ar    1  UNL1        0.0617
     10 C           3.8000    0.2277    0.0000 C.ar    1  UNL1        0.0332
     11 C           3.8000   -0.7723    0.0000 C.ar    1  UNL1        0.0331
     12 C           4.6660    0.7277    0.0000 C.2     1  UNL1        0.1980
     13 C           4.6660   -1.2723    0.0000 C.2     1  UNL1        0.1947
     14 C           6.4260   -1.3070    0.0000 C.ar    1  UNL1       -0.0081
     15 C           7.3321   -0.7931    0.0000 C.ar    1  UNL1        0.1264
     16 C           8.1962    0.7519    0.0000 C.3     1  UNL1        0.0792
     17 C           2.9061    0.7624    0.0000 C.ar    1  UNL1       -0.0502
     18 C           2.9061   -1.3070    0.0000 C.ar    1  UNL1       -0.0502
     19 C           2.0000    0.2485    0.0000 C.ar    1  UNL1       -0.0610
     20 C           2.0000   -0.7931    0.0000 C.ar    1  UNL1       -0.0610
     21 C           7.2746    2.2723    0.0000 C.3     1  UNL1        0.0788
     22 C           9.9282    0.7585    0.0000 C.3     1  UNL1        0.0369
     23 H           6.4188   -1.9269    0.0000 H       1  UNL1        0.0661
     24 H           8.5929    1.2283    0.0000 H       1  UNL1        0.0612
     25 H           7.7958    1.2253    0.0000 H       1  UNL1        0.0612
     26 H           2.9132    1.3823    0.0000 H       1  UNL1        0.0625
     27 H           2.9132   -1.9269    0.0000 H       1  UNL1        0.0625
     28 H           1.4643    0.5606    0.0000 H       1  UNL1        0.0618
     29 H           1.4643   -1.1052    0.0000 H       1  UNL1        0.0618
     30 H           8.1938   -1.9164    0.0000 H       1  UNL1        0.2921
     31 H           7.5908    1.7390    0.0000 H       1  UNL1        0.0660
     32 H           7.8079    2.5885    0.0000 H       1  UNL1        0.0660
     33 H           6.9584    2.8056    0.0000 H       1  UNL1        0.0660
     34 H          10.2403    0.2228    0.0000 H       1  UNL1        0.0524
     35 H          10.4639    1.0706    0.0000 H       1  UNL1        0.0524
     36 H           9.6161    1.2943    0.0000 H       1  UNL1        0.0524
@<TRIPOS>BOND
     1     1     8    1
     2     1    21    1
     3     2    15    1
     4     2    30    1
     5     3    16    1
     6     3    22    1
     7     4    12    2
     8     5    13    2
     9     6     7   ar
    10     6     8   ar
    11     6    12    1
    12     7    13    1
    13     7    14   ar
    14     8     9   ar
    15     9    15   ar
    16     9    16    1
    17    10    11   ar
    18    10    12    1
    19    10    17   ar
    20    11    13    1
    21    11    18   ar
    22    14    15   ar
    23    14    23    1
    24    16    24    1
    25    16    25    1
    26    17    19   ar
    27    17    26    1
    28    18    20   ar
    29    18    27    1
    30    19    20   ar
    31    19    28    1
    32    20    29    1
    33    21    31    1
    34    21    32    1
    35    21    33    1
    36    22    34    1
    37    22    35    1
    38    22    36    1
