@<TRIPOS>MOLECULE
IMPHY001099
 68 73 0 0 0
SMALL
GASTEIGER

@<TRIPOS>ATOM
      1 O           5.0958    4.7004    0.0000 O.3     1  UNL1       -0.4501
      2 O           8.3498    1.9116    0.0000 O.3     1  UNL1       -0.4526
      3 O           7.9383   -0.8133    0.0000 O.3     1  UNL1       -0.3293
      4 O           7.0741    4.6441    0.0000 O.3     1  UNL1       -0.3504
      5 O           5.4800    0.4321    0.0000 O.3     1  UNL1       -0.4487
      6 O           6.8876    6.3223    0.0000 O.3     1  UNL1       -0.3539
      7 O           5.9470    5.9828    0.0000 O.3     1  UNL1       -0.3539
      8 O           8.1249   -0.4288    0.0000 O.3     1  UNL1       -0.3841
      9 O           6.4402   -1.6602    0.0000 O.3     1  UNL1       -0.4276
     10 O           8.3817    5.8689    0.0000 O.2     1  UNL1       -0.2867
     11 O           8.8373    3.4366    0.0000 O.2     1  UNL1       -0.2453
     12 O           3.0702    4.5764    0.0000 O.3     1  UNL1       -0.5009
     13 O           9.9083   -0.9958    0.0000 O.3     1  UNL1       -0.3923
     14 O           3.9550    0.9196    0.0000 O.2     1  UNL1       -0.2449
     15 O           2.2380    2.7016    0.0000 O.3     1  UNL1       -0.5032
     16 O           7.9442   -2.5192    0.0000 O.2     1  UNL1       -0.2449
     17 O           6.9605   -5.9879    0.0000 O.3     1  UNL1       -0.5032
     18 O           3.9524   -4.2700    0.0000 O.3     1  UNL1       -0.5032
     19 O           4.9605   -5.9973    0.0000 O.3     1  UNL1       -0.5009
     20 C           6.2412    3.5698    0.0000 C.3     1  UNL1        0.0915
     21 C           6.0785    4.5505    0.0000 C.3     1  UNL1        0.2834
     22 C           5.3524    3.1116    0.0000 C.ar    1  UNL1        0.0263
     23 C           6.7113    5.3379    0.0000 C.3     1  UNL1        0.2977
     24 C           7.2367    3.4747    0.0000 C.2     1  UNL1        0.0540
     25 C           8.1140    0.9398    0.0000 C.3     1  UNL1        0.1609
     26 C           7.3903    0.2497    0.0000 C.3     1  UNL1        0.1373
     27 C           6.4084    0.0604    0.0000 C.3     1  UNL1        0.1944
     28 C           4.6479    3.8130    0.0000 C.ar    1  UNL1        0.1741
     29 C           8.5022    0.0155    0.0000 C.3     1  UNL1        0.1251
     30 C           6.9361   -0.7918    0.0000 C.3     1  UNL1        0.2454
     31 C           4.8524    2.2456    0.0000 C.ar    1  UNL1        0.0701
     32 C           7.7012    5.1362    0.0000 C.2     1  UNL1        0.2218
     33 C           7.9753    4.1639    0.0000 C.2     1  UNL1       -0.0028
     34 C           8.0227    2.8566    0.0000 C.2     1  UNL1        0.3365
     35 C           3.6394    3.7543    0.0000 C.ar    1  UNL1        0.2013
     36 C           9.4972   -0.0842    0.0000 C.3     1  UNL1        0.0741
     37 C           4.8999    1.2467    0.0000 C.2     1  UNL1        0.3402
     38 C           3.8625    2.0436    0.0000 C.ar    1  UNL1       -0.0020
     39 C           3.2296    2.8309    0.0000 C.ar    1  UNL1        0.1628
     40 C           6.9442   -2.5239    0.0000 C.2     1  UNL1        0.3417
     41 C           6.4483   -3.3922    0.0000 C.ar    1  UNL1        0.0662
     42 C           5.4483   -3.3969    0.0000 C.ar    1  UNL1       -0.0023
     43 C           6.9524   -4.2559    0.0000 C.ar    1  UNL1       -0.0023
     44 C           6.4564   -5.1243    0.0000 C.ar    1  UNL1        0.1628
     45 C           4.9524   -4.2653    0.0000 C.ar    1  UNL1        0.1628
     46 C           5.4564   -5.1290    0.0000 C.ar    1  UNL1        0.2006
     47 H           5.4737    3.9351    0.0000 H       1  UNL1        0.0467
     48 H           7.3779    1.3648    0.0000 H       1  UNL1        0.0789
     49 H           7.2204   -0.3466    0.0000 H       1  UNL1        0.0671
     50 H           5.8617   -0.5905    0.0000 H       1  UNL1        0.0826
     51 H           8.7644   -0.5463    0.0000 H       1  UNL1        0.0658
     52 H           6.3162   -0.8028    0.0000 H       1  UNL1        0.1097
     53 H           8.5724    3.9970    0.0000 H       1  UNL1        0.0659
     54 H           6.9175    4.0442    0.0000 H       1  UNL1        0.2140
     55 H          10.0980    0.0687    0.0000 H       1  UNL1        0.0584
     56 H           9.4509    0.5341    0.0000 H       1  UNL1        0.0584
     57 H           3.6522    1.4604    0.0000 H       1  UNL1        0.0663
     58 H           7.4707    6.5328    0.0000 H       1  UNL1        0.2134
     59 H           5.3638    5.7722    0.0000 H       1  UNL1        0.2134
     60 H           8.7297   -0.5654    0.0000 H       1  UNL1        0.2101
     61 H           2.4522    4.5257    0.0000 H       1  UNL1        0.2924
     62 H          10.5252   -1.0576    0.0000 H       1  UNL1        0.2095
     63 H           2.0000    2.1291    0.0000 H       1  UNL1        0.2923
     64 H           5.1358   -2.8614    0.0000 H       1  UNL1        0.0663
     65 H           7.5724   -4.2530    0.0000 H       1  UNL1        0.0663
     66 H           7.5805   -5.9850    0.0000 H       1  UNL1        0.2923
     67 H           3.6449   -4.8084    0.0000 H       1  UNL1        0.2923
     68 H           5.2730   -6.5328    0.0000 H       1  UNL1        0.2924
@<TRIPOS>BOND
     1     1    21    1
     2     1    28    1
     3     2    25    1
     4     2    34    1
     5     3    29    1
     6     3    30    1
     7     4    21    1
     8     4    54    1
     9     5    27    1
    10     5    37    1
    11     6    23    1
    12     6    58    1
    13     7    23    1
    14     7    59    1
    15    26     8    1
    16     8    60    1
    17    30     9    1
    18     9    40    1
    19    10    32    2
    20    11    34    2
    21    12    35    1
    22    12    61    1
    23    13    36    1
    24    13    62    1
    25    14    37    2
    26    15    39    1
    27    15    63    1
    28    16    40    2
    29    17    44    1
    30    17    66    1
    31    18    45    1
    32    18    67    1
    33    19    46    1
    34    19    68    1
    35    20    21    1
    36    20    22    1
    37    20    24    1
    38    20    47    1
    39    21    23    1
    40    22    28   ar
    41    22    31   ar
    42    23    32    1
    43    24    33    2
    44    24    34    1
    45    25    26    1
    46    25    29    1
    47    25    48    1
    48    26    27    1
    49    26    49    1
    50    27    30    1
    51    27    50    1
    52    28    35   ar
    53    29    36    1
    54    29    51    1
    55    30    52    1
    56    31    37    1
    57    31    38   ar
    58    32    33    1
    59    33    53    1
    60    35    39   ar
    61    36    55    1
    62    36    56    1
    63    38    39   ar
    64    38    57    1
    65    40    41    1
    66    41    42   ar
    67    41    43   ar
    68    42    45   ar
    69    42    64    1
    70    43    44   ar
    71    43    65    1
    72    44    46   ar
    73    45    46   ar
