@<TRIPOS>MOLECULE
IMPHY001870
 12 12 0 0 0
SMALL
GASTEIGER

@<TRIPOS>ATOM
      1 O           5.5202   -0.1807    0.0000 O.2     1  UNL1       -0.2754
      2 O           2.0000   -0.1807    0.0000 O.2     1  UNL1       -0.2754
      3 N           3.7601   -0.4594    0.0000 N.am    1  UNL1       -0.2564
      4 C           4.2601    1.0794    0.0000 C.3     1  UNL1        0.0326
      5 C           3.2601    1.0794    0.0000 C.3     1  UNL1        0.0326
      6 C           4.5691    0.1284    0.0000 C.2     1  UNL1        0.2196
      7 C           2.9511    0.1284    0.0000 C.2     1  UNL1        0.2196
      8 H           4.8665    1.2083    0.0000 H       1  UNL1        0.0363
      9 H           4.1953    1.6960    0.0000 H       1  UNL1        0.0363
     10 H           3.3249    1.6960    0.0000 H       1  UNL1        0.0363
     11 H           2.6536    1.2083    0.0000 H       1  UNL1        0.0363
     12 H           3.7601   -1.0794    0.0000 H       1  UNL1        0.1575
@<TRIPOS>BOND
     1     1     6    2
     2     2     7    2
     3     3     6   am
     4     3     7   am
     5     3    12    1
     6     4     5    1
     7     4     6    1
     8     4     8    1
     9     4     9    1
    10     5     7    1
    11     5    10    1
    12     5    11    1
