@<TRIPOS>MOLECULE
IMPHY001584
 54 55 0 0 0
SMALL
GASTEIGER

@<TRIPOS>ATOM
      1 O           2.0000    3.7567    0.0000 O.2     1  UNL1       -0.3004
      2 O           7.8058   -3.6737    0.0000 O.3     1  UNL1       -0.3910
      3 C           4.3660    1.3907    0.0000 C.3     1  UNL1       -0.0219
      4 C           4.3660    2.3907    0.0000 C.3     1  UNL1       -0.0230
      5 C           3.5000    2.8907    0.0000 C.3     1  UNL1        0.0265
      6 C           5.2600    0.8560    0.0000 C.3     1  UNL1       -0.0142
      7 C           3.5000    0.8907    0.0000 C.3     1  UNL1       -0.0468
      8 C           5.2600    2.9254    0.0000 C.3     1  UNL1       -0.0451
      9 C           2.6340    2.3907    0.0000 C.3     1  UNL1       -0.0409
     10 C           2.6340    1.3907    0.0000 C.3     1  UNL1       -0.0517
     11 C           4.3660    0.3907    0.0000 C.3     1  UNL1       -0.0587
     12 C           6.1660    2.4115    0.0000 C.3     1  UNL1       -0.0314
     13 C           6.1660    1.3699    0.0000 C.2     1  UNL1       -0.0730
     14 C           5.2484   -0.1439    0.0000 C.3     1  UNL1       -0.0423
     15 C           4.0000    3.7567    0.0000 C.3     1  UNL1       -0.0528
     16 C           3.0000    3.7567    0.0000 C.2     1  UNL1        0.1264
     17 C           6.1086   -0.6539    0.0000 C.3     1  UNL1       -0.0314
     18 C           7.0301    0.8666    0.0000 C.2     1  UNL1       -0.0992
     19 C           6.0970   -1.6538    0.0000 C.2     1  UNL1       -0.0744
     20 C           5.2253   -2.1438    0.0000 C.3     1  UNL1       -0.0437
     21 C           6.9572   -2.1638    0.0000 C.2     1  UNL1       -0.0600
     22 C           6.9456   -3.1637    0.0000 C.3     1  UNL1        0.0626
     23 H           4.3595    3.2407    0.0000 H       1  UNL1        0.0316
     24 H           5.7939    0.5409    0.0000 H       1  UNL1        0.0351
     25 H           3.1015    0.4158    0.0000 H       1  UNL1        0.0271
     26 H           3.8985    0.4158    0.0000 H       1  UNL1        0.0271
     27 H           5.6536    3.4044    0.0000 H       1  UNL1        0.0271
     28 H           4.8554    3.3952    0.0000 H       1  UNL1        0.0271
     29 H           2.4219    2.9733    0.0000 H       1  UNL1        0.0275
     30 H           2.0234    2.2830    0.0000 H       1  UNL1        0.0275
     31 H           2.0234    1.4984    0.0000 H       1  UNL1        0.0266
     32 H           2.4219    0.8081    0.0000 H       1  UNL1        0.0266
     33 H           3.7460    0.3907    0.0000 H       1  UNL1        0.0235
     34 H           4.3660   -0.2293    0.0000 H       1  UNL1        0.0235
     35 H           4.9860    0.3907    0.0000 H       1  UNL1        0.0235
     36 H           6.7769    2.3054    0.0000 H       1  UNL1        0.0310
     37 H           6.3751    2.9952    0.0000 H       1  UNL1        0.0310
     38 H           4.6391   -0.0292    0.0000 H       1  UNL1        0.0274
     39 H           5.0296   -0.7240    0.0000 H       1  UNL1        0.0274
     40 H           4.5369    3.4467    0.0000 H       1  UNL1        0.0239
     41 H           4.3100    4.2937    0.0000 H       1  UNL1        0.0239
     42 H           3.4631    4.0667    0.0000 H       1  UNL1        0.0239
     43 H           3.3100    4.2937    0.0000 H       1  UNL1        0.1032
     44 H           6.7179   -0.7686    0.0000 H       1  UNL1        0.0310
     45 H           6.3274   -0.0738    0.0000 H       1  UNL1        0.0310
     46 H           7.0277    0.2466    0.0000 H       1  UNL1        0.0534
     47 H           7.5682    1.1745    0.0000 H       1  UNL1        0.0534
     48 H           4.9215   -1.6033    0.0000 H       1  UNL1        0.0274
     49 H           4.6848   -2.4475    0.0000 H       1  UNL1        0.0274
     50 H           5.5290   -2.6842    0.0000 H       1  UNL1        0.0274
     51 H           7.4977   -1.8600    0.0000 H       1  UNL1        0.0594
     52 H           6.3364   -3.0490    0.0000 H       1  UNL1        0.0601
     53 H           6.7269   -3.7438    0.0000 H       1  UNL1        0.0601
     54 H           7.7987   -4.2937    0.0000 H       1  UNL1        0.2098
@<TRIPOS>BOND
     1     1    16    2
     2     2    22    1
     3     2    54    1
     4     3     4    1
     5     3     6    1
     6     3     7    1
     7     3    11    1
     8     4     5    1
     9     4     8    1
    10     4    23    1
    11     5     9    1
    12     5    15    1
    13     5    16    1
    14     6    13    1
    15     6    14    1
    16     6    24    1
    17     7    10    1
    18     7    25    1
    19     7    26    1
    20     8    12    1
    21     8    27    1
    22     8    28    1
    23     9    10    1
    24     9    29    1
    25     9    30    1
    26    10    31    1
    27    10    32    1
    28    11    33    1
    29    11    34    1
    30    11    35    1
    31    12    13    1
    32    12    36    1
    33    12    37    1
    34    13    18    2
    35    14    17    1
    36    14    38    1
    37    14    39    1
    38    15    40    1
    39    15    41    1
    40    15    42    1
    41    16    43    1
    42    17    19    1
    43    17    44    1
    44    17    45    1
    45    18    46    1
    46    18    47    1
    47    19    20    1
    48    19    21    2
    49    20    48    1
    50    20    49    1
    51    20    50    1
    52    21    22    1
    53    21    51    1
    54    22    52    1
    55    22    53    1
