@<TRIPOS>MOLECULE
IMPHY013866
 20 20 0 0 0
SMALL
GASTEIGER

@<TRIPOS>ATOM
      1 O           6.2633   -0.0141    0.0000 O.3     1  UNL1       -0.4806
      2 O           5.1043    1.2730    0.0000 O.2     1  UNL1       -0.2510
      3 N           2.8090   -0.6530    0.0000 N.3     1  UNL1       -0.3127
      4 C           3.6180   -0.0652    0.0000 C.3     1  UNL1        0.0177
      5 C           3.3090    0.8858    0.0000 C.3     1  UNL1       -0.0359
      6 C           2.3090    0.8858    0.0000 C.3     1  UNL1       -0.0390
      7 C           2.0000   -0.0652    0.0000 C.3     1  UNL1       -0.0038
      8 C           4.5691   -0.3743    0.0000 C.3     1  UNL1        0.0601
      9 C           5.3122    0.2949    0.0000 C.2     1  UNL1        0.3062
     10 H           3.7150   -0.6776    0.0000 H       1  UNL1        0.0466
     11 H           3.9155    1.0147    0.0000 H       1  UNL1        0.0281
     12 H           3.2442    1.5024    0.0000 H       1  UNL1        0.0281
     13 H           2.3738    1.5024    0.0000 H       1  UNL1        0.0278
     14 H           1.7026    1.0147    0.0000 H       1  UNL1        0.0278
     15 H           1.4336    0.1869    0.0000 H       1  UNL1        0.0424
     16 H           1.6900   -0.6022    0.0000 H       1  UNL1        0.0424
     17 H           2.8090   -1.2730    0.0000 H       1  UNL1        0.1222
     18 H           4.2780   -0.9217    0.0000 H       1  UNL1        0.0393
     19 H           5.0577   -0.7560    0.0000 H       1  UNL1        0.0393
     20 H           6.7240    0.4007    0.0000 H       1  UNL1        0.2951
@<TRIPOS>BOND
     1     1     9    1
     2     1    20    1
     3     2     9    2
     4     3     4    1
     5     3     7    1
     6     3    17    1
     7     4     5    1
     8     4     8    1
     9     4    10    1
    10     5     6    1
    11     5    11    1
    12     5    12    1
    13     6     7    1
    14     6    13    1
    15     6    14    1
    16     7    15    1
    17     7    16    1
    18     8     9    1
    19     8    18    1
    20     8    19    1
