@<TRIPOS>MOLECULE
IMPHY007109
 12 11 0 0 0
SMALL
GASTEIGER

@<TRIPOS>ATOM
      1 O           2.8660   -1.2500    0.0000 O.2     1  UNL1       -0.2893
      2 O           3.7320    1.2500    0.0000 O.2     1  UNL1       -0.2893
      3 C           2.8660   -0.2500    0.0000 C.2     1  UNL1        0.1947
      4 C           3.7320    0.2500    0.0000 C.2     1  UNL1        0.1947
      5 C           2.0000    0.2500    0.0000 C.3     1  UNL1        0.0015
      6 C           4.5981   -0.2500    0.0000 C.3     1  UNL1        0.0015
      7 H           2.3100    0.7869    0.0000 H       1  UNL1        0.0310
      8 H           1.4631    0.5600    0.0000 H       1  UNL1        0.0310
      9 H           1.6900   -0.2869    0.0000 H       1  UNL1        0.0310
     10 H           4.2881   -0.7869    0.0000 H       1  UNL1        0.0310
     11 H           5.1350   -0.5600    0.0000 H       1  UNL1        0.0310
     12 H           4.9081    0.2869    0.0000 H       1  UNL1        0.0310
@<TRIPOS>BOND
     1     1     3    2
     2     2     4    2
     3     3     4    1
     4     3     5    1
     5     4     6    1
     6     5     7    1
     7     5     8    1
     8     5     9    1
     9     6    10    1
    10     6    11    1
    11     6    12    1
