@<TRIPOS>MOLECULE
IMPHY000930
 195 206 0 0 0
SMALL
GASTEIGER

@<TRIPOS>ATOM
      1 O           2.9008    4.7145    0.0000 O.3     1  UNL1       -0.3448
      2 O           3.9884    6.3756    0.0000 O.3     1  UNL1       -0.3480
      3 O           7.7553   -2.5796    0.0000 O.3     1  UNL1       -0.3377
      4 O           7.3893   -1.2135    0.0000 O.3     1  UNL1       -0.3144
      5 O           9.7553   -0.8475    0.0000 O.3     1  UNL1       -0.3374
      6 O          10.6213   -3.0796    0.0000 O.3     1  UNL1       -0.3400
      7 O           9.7553   -4.3116    0.0000 O.3     1  UNL1       -0.3401
      8 O           5.6572   -1.2135    0.0000 O.3     1  UNL1       -0.3404
      9 O           8.4285    0.2658    0.0000 O.3     1  UNL1       -0.3405
     10 O           6.7553   -4.3116    0.0000 O.3     1  UNL1       -0.3924
     11 O           7.3893   -3.2135    0.0000 O.3     1  UNL1       -0.3841
     12 O          11.4873   -1.5796    0.0000 O.3     1  UNL1       -0.3405
     13 O          11.0408    0.6846    0.0000 O.3     1  UNL1       -0.3378
     14 O           8.2553   -5.1776    0.0000 O.3     1  UNL1       -0.3431
     15 O           5.6572   -4.2135    0.0000 O.3     1  UNL1       -0.3864
     16 O           3.9252   -3.2135    0.0000 O.3     1  UNL1       -0.3865
     17 O          10.3568    2.5640    0.0000 O.3     1  UNL1       -0.3864
     18 O          12.3534   -4.0796    0.0000 O.3     1  UNL1       -0.3841
     19 O          10.7553   -6.0437    0.0000 O.3     1  UNL1       -0.3841
     20 O           8.3872    2.9112    0.0000 O.3     1  UNL1       -0.3865
     21 O           3.0591   -1.7135    0.0000 O.3     1  UNL1       -0.3924
     22 O          14.0854   -3.0796    0.0000 O.3     1  UNL1       -0.3864
     23 O           9.7553   -7.7757    0.0000 O.3     1  UNL1       -0.3864
     24 O          14.0854   -1.0796    0.0000 O.3     1  UNL1       -0.3865
     25 O          11.3416    2.3903    0.0000 O.3     1  UNL1       -0.3461
     26 O           6.2204    0.7056    0.0000 O.3     1  UNL1       -0.3924
     27 O           7.7553   -7.7757    0.0000 O.3     1  UNL1       -0.3866
     28 O          10.8534   -0.2135    0.0000 O.3     1  UNL1       -0.3924
     29 O          13.0105    0.3373    0.0000 O.3     1  UNL1       -0.3841
     30 O          14.2960    1.8694    0.0000 O.3     1  UNL1       -0.3864
     31 O          13.6119    3.7488    0.0000 O.3     1  UNL1       -0.3869
     32 C           5.1315    3.6385    0.0000 C.3     1  UNL1       -0.0233
     33 C           4.6282    2.7744    0.0000 C.3     1  UNL1       -0.0298
     34 C           5.1248    1.9064    0.0000 C.3     1  UNL1       -0.0343
     35 C           4.4673    4.3781    0.0000 C.3     1  UNL1       -0.0015
     36 C           6.1248    1.9026    0.0000 C.3     1  UNL1       -0.0323
     37 C           6.6560    1.0066    0.0000 C.3     1  UNL1       -0.0261
     38 C           3.5579    3.9764    0.0000 C.3     1  UNL1        0.0660
     39 C           3.6572    2.9873    0.0000 C.3     1  UNL1       -0.0226
     40 C           6.1315    3.6346    0.0000 C.3     1  UNL1       -0.0467
     41 C           6.6282    2.7667    0.0000 C.3     1  UNL1       -0.0489
     42 C           6.1387    0.1025    0.0000 C.3     1  UNL1       -0.0349
     43 C           4.3644    5.3609    0.0000 C.3     1  UNL1        0.0160
     44 C           4.5867    1.0146    0.0000 C.3     1  UNL1       -0.0494
     45 C           5.0971    0.1065    0.0000 C.3     1  UNL1       -0.0494
     46 C           3.3982    5.5684    0.0000 C.3     1  UNL1        0.1732
     47 C           5.6348    4.5026    0.0000 C.3     1  UNL1       -0.0590
     48 C           7.7408    1.0275    0.0000 C.3     1  UNL1       -0.0467
     49 C           6.6703   -0.8433    0.0000 C.3     1  UNL1       -0.0419
     50 C           7.7553   -0.8475    0.0000 C.3     1  UNL1        0.0162
     51 C           7.1527    1.8745    0.0000 C.3     1  UNL1       -0.0590
     52 C           8.2942    0.0942    0.0000 C.3     1  UNL1       -0.0447
     53 C           5.1084    6.0291    0.0000 C.3     1  UNL1       -0.0572
     54 C           2.4040    5.6759    0.0000 C.3     1  UNL1        0.0020
     55 C           8.2553   -1.7135    0.0000 C.3     1  UNL1        0.2049
     56 C           2.0000    6.5906    0.0000 C.3     1  UNL1       -0.0435
     57 C           3.5844    7.2904    0.0000 C.3     1  UNL1        0.0535
     58 C           2.5902    7.3979    0.0000 C.3     1  UNL1       -0.0201
     59 C           9.2553   -1.7135    0.0000 C.3     1  UNL1        0.1443
     60 C           9.7553   -2.5796    0.0000 C.3     1  UNL1        0.1216
     61 C           8.2553   -3.4456    0.0000 C.3     1  UNL1        0.1137
     62 C           9.2553   -3.4456    0.0000 C.3     1  UNL1        0.1188
     63 C           2.1862    8.3127    0.0000 C.3     1  UNL1       -0.0603
     64 C           6.5232   -1.7135    0.0000 C.3     1  UNL1        0.1912
     65 C           7.7553   -4.3116    0.0000 C.3     1  UNL1        0.0730
     66 C           9.4133    0.0922    0.0000 C.3     1  UNL1        0.1889
     67 C           6.5232   -2.7135    0.0000 C.3     1  UNL1        0.1342
     68 C          11.4873   -2.5796    0.0000 C.3     1  UNL1        0.1884
     69 C           5.6572   -3.2135    0.0000 C.3     1  UNL1        0.1141
     70 C          10.0561    0.8582    0.0000 C.3     1  UNL1        0.1406
     71 C           4.7912   -1.7135    0.0000 C.3     1  UNL1        0.1130
     72 C           9.2553   -5.1776    0.0000 C.3     1  UNL1        0.1883
     73 C           4.7912   -2.7135    0.0000 C.3     1  UNL1        0.1119
     74 C           9.7140    1.7979    0.0000 C.3     1  UNL1        0.1144
     75 C          12.3534   -3.0796    0.0000 C.3     1  UNL1        0.1341
     76 C           8.0864    1.2055    0.0000 C.3     1  UNL1        0.1130
     77 C           9.7553   -6.0437    0.0000 C.3     1  UNL1        0.1341
     78 C           8.7292    1.9716    0.0000 C.3     1  UNL1        0.1119
     79 C           3.9252   -1.2135    0.0000 C.3     1  UNL1        0.0730
     80 C          13.2194   -2.5796    0.0000 C.3     1  UNL1        0.1141
     81 C          12.3534   -1.0796    0.0000 C.3     1  UNL1        0.1130
     82 C           9.2553   -6.9097    0.0000 C.3     1  UNL1        0.1140
     83 C          13.2194   -1.5796    0.0000 C.3     1  UNL1        0.1119
     84 C           7.7553   -6.0437    0.0000 C.3     1  UNL1        0.0873
     85 C           7.0864    1.2055    0.0000 C.3     1  UNL1        0.0730
     86 C           8.2553   -6.9097    0.0000 C.3     1  UNL1        0.1095
     87 C          11.6836    1.4507    0.0000 C.3     1  UNL1        0.1881
     88 C          11.8534   -0.2135    0.0000 C.3     1  UNL1        0.0730
     89 C           6.7553   -6.0437    0.0000 C.3     1  UNL1       -0.0361
     90 C          12.6684    1.2770    0.0000 C.3     1  UNL1        0.1341
     91 C          13.3112    2.0431    0.0000 C.3     1  UNL1        0.1137
     92 C          11.9844    3.1564    0.0000 C.3     1  UNL1        0.0792
     93 C          12.9692    2.9828    0.0000 C.3     1  UNL1        0.1069
     94 H           4.2612    2.2747    0.0000 H       1  UNL1        0.0310
     95 H           4.5049    1.9136    0.0000 H       1  UNL1        0.0306
     96 H           5.2441    4.7231    0.0000 H       1  UNL1        0.0335
     97 H           6.7448    1.9050    0.0000 H       1  UNL1        0.0309
     98 H           2.7796    3.6347    0.0000 H       1  UNL1        0.0600
     99 H           3.0372    2.9906    0.0000 H       1  UNL1        0.0293
    100 H           3.5888    2.3711    0.0000 H       1  UNL1        0.0293
    101 H           6.7149    3.8444    0.0000 H       1  UNL1        0.0271
    102 H           6.0262    4.2456    0.0000 H       1  UNL1        0.0271
    103 H           7.1016    2.3663    0.0000 H       1  UNL1        0.0268
    104 H           7.1046    3.1634    0.0000 H       1  UNL1        0.0268
    105 H           5.8246   -0.4320    0.0000 H       1  UNL1        0.0306
    106 H           4.9430    5.1382    0.0000 H       1  UNL1        0.0354
    107 H           4.1185    1.4210    0.0000 H       1  UNL1        0.0268
    108 H           4.1062    0.6228    0.0000 H       1  UNL1        0.0268
    109 H           4.5126   -0.1003    0.0000 H       1  UNL1        0.0268
    110 H           5.2008   -0.5047    0.0000 H       1  UNL1        0.0268
    111 H           6.1706    4.1905    0.0000 H       1  UNL1        0.0235
    112 H           5.9469    5.0383    0.0000 H       1  UNL1        0.0235
    113 H           5.0991    4.8146    0.0000 H       1  UNL1        0.0235
    114 H           8.3204    1.2478    0.0000 H       1  UNL1        0.0271
    115 H           7.6230    1.6362    0.0000 H       1  UNL1        0.0271
    116 H           6.0858   -1.0501    0.0000 H       1  UNL1        0.0272
    117 H           6.7740   -1.4546    0.0000 H       1  UNL1        0.0272
    118 H           8.3753   -0.8463    0.0000 H       1  UNL1        0.0354
    119 H           7.6908    1.5666    0.0000 H       1  UNL1        0.0235
    120 H           7.4606    2.4127    0.0000 H       1  UNL1        0.0235
    121 H           6.6146    2.1825    0.0000 H       1  UNL1        0.0235
    122 H           8.7717   -0.3013    0.0000 H       1  UNL1        0.0270
    123 H           8.7655    0.4970    0.0000 H       1  UNL1        0.0270
    124 H           5.5226    5.5678    0.0000 H       1  UNL1        0.0234
    125 H           5.5696    6.4434    0.0000 H       1  UNL1        0.0234
    126 H           4.6941    6.4903    0.0000 H       1  UNL1        0.0234
    127 H           1.8020    5.5277    0.0000 H       1  UNL1        0.0317
    128 H           2.4454    5.0573    0.0000 H       1  UNL1        0.0317
    129 H           1.5707    7.0379    0.0000 H       1  UNL1        0.0270
    130 H           1.4850    6.2455    0.0000 H       1  UNL1        0.0270
    131 H           4.1864    7.4386    0.0000 H       1  UNL1        0.0563
    132 H           3.5430    7.9090    0.0000 H       1  UNL1        0.0563
    133 H           1.9738    7.4646    0.0000 H       1  UNL1        0.0320
    134 H           8.9453   -1.1766    0.0000 H       1  UNL1        0.0678
    135 H          10.1937   -2.1412    0.0000 H       1  UNL1        0.0652
    136 H           7.6353   -3.4456    0.0000 H       1  UNL1        0.0647
    137 H           9.8753   -3.4456    0.0000 H       1  UNL1        0.0651
    138 H           2.7534    8.5631    0.0000 H       1  UNL1        0.0233
    139 H           1.9357    8.8798    0.0000 H       1  UNL1        0.0233
    140 H           1.6191    8.0622    0.0000 H       1  UNL1        0.0233
    141 H           7.0602   -2.0235    0.0000 H       1  UNL1        0.0939
    142 H           7.6476   -4.9222    0.0000 H       1  UNL1        0.0584
    143 H           8.3379   -4.5237    0.0000 H       1  UNL1        0.0584
    144 H          10.0239   -0.0155    0.0000 H       1  UNL1        0.0938
    145 H           6.5232   -3.3335    0.0000 H       1  UNL1        0.0671
    146 H          11.4873   -3.1996    0.0000 H       1  UNL1        0.0938
    147 H           5.1203   -3.5235    0.0000 H       1  UNL1        0.0648
    148 H          10.4546    1.3332    0.0000 H       1  UNL1        0.0675
    149 H           4.7912   -1.0935    0.0000 H       1  UNL1        0.0647
    150 H           9.8753   -5.1776    0.0000 H       1  UNL1        0.0938
    151 H           4.2542   -2.4035    0.0000 H       1  UNL1        0.0647
    152 H           6.4453   -4.8486    0.0000 H       1  UNL1        0.2095
    153 H           9.5020    2.3805    0.0000 H       1  UNL1        0.0648
    154 H          12.8903   -3.3896    0.0000 H       1  UNL1        0.0671
    155 H           7.3893   -3.8335    0.0000 H       1  UNL1        0.2101
    156 H           7.7308    0.6976    0.0000 H       1  UNL1        0.0647
    157 H          10.0653   -6.5806    0.0000 H       1  UNL1        0.0671
    158 H           8.1186    2.0792    0.0000 H       1  UNL1        0.0647
    159 H           4.3237   -0.7386    0.0000 H       1  UNL1        0.0584
    160 H           3.5266   -0.7386    0.0000 H       1  UNL1        0.0584
    161 H          13.7563   -2.2696    0.0000 H       1  UNL1        0.0648
    162 H           5.1203   -4.5235    0.0000 H       1  UNL1        0.2100
    163 H          11.7545   -0.9191    0.0000 H       1  UNL1        0.0647
    164 H           8.9453   -7.4466    0.0000 H       1  UNL1        0.0648
    165 H          13.2194   -0.9596    0.0000 H       1  UNL1        0.0647
    166 H           3.9252   -3.8335    0.0000 H       1  UNL1        0.2100
    167 H           7.4453   -5.5067    0.0000 H       1  UNL1        0.0621
    168 H           7.2985    1.7881    0.0000 H       1  UNL1        0.0584
    169 H           7.2469    0.6066    0.0000 H       1  UNL1        0.0584
    170 H           7.6353   -6.9097    0.0000 H       1  UNL1        0.0646
    171 H          11.0730    1.5584    0.0000 H       1  UNL1        0.0937
    172 H          10.1448    3.1466    0.0000 H       1  UNL1        0.2100
    173 H          12.8903   -4.3896    0.0000 H       1  UNL1        0.2101
    174 H          11.0653   -6.5806    0.0000 H       1  UNL1        0.2101
    175 H           8.7857    3.3862    0.0000 H       1  UNL1        0.2100
    176 H          12.4360   -0.0015    0.0000 H       1  UNL1        0.0584
    177 H          11.7457    0.3970    0.0000 H       1  UNL1        0.0584
    178 H           2.5222   -1.4035    0.0000 H       1  UNL1        0.2095
    179 H          14.6224   -2.7696    0.0000 H       1  UNL1        0.2100
    180 H           6.7553   -5.4237    0.0000 H       1  UNL1        0.0255
    181 H           6.1353   -6.0437    0.0000 H       1  UNL1        0.0255
    182 H           6.7553   -6.6637    0.0000 H       1  UNL1        0.0255
    183 H          12.2699    0.8021    0.0000 H       1  UNL1        0.0671
    184 H           9.4453   -8.3127    0.0000 H       1  UNL1        0.2100
    185 H          14.6224   -1.3896    0.0000 H       1  UNL1        0.2100
    186 H           5.6835    1.0156    0.0000 H       1  UNL1        0.2095
    187 H           7.1353   -7.7757    0.0000 H       1  UNL1        0.2100
    188 H          13.7097    2.5180    0.0000 H       1  UNL1        0.0647
    189 H          12.1965    3.7390    0.0000 H       1  UNL1        0.0587
    190 H          11.4475    3.4663    0.0000 H       1  UNL1        0.0587
    191 H          12.7571    3.5654    0.0000 H       1  UNL1        0.0643
    192 H          10.5434    0.3234    0.0000 H       1  UNL1        0.2095
    193 H          13.6211    0.2296    0.0000 H       1  UNL1        0.2101
    194 H          14.6946    2.3444    0.0000 H       1  UNL1        0.2100
    195 H          13.4000    4.3314    0.0000 H       1  UNL1        0.2100
@<TRIPOS>BOND
     1     1    38    1
     2     1    46    1
     3     2    46    1
     4     2    57    1
     5     3    55    1
     6     3    61    1
     7    55     4    1
     8    64     4    1
     9    59     5    1
    10    66     5    1
    11    60     6    1
    12    68     6    1
    13    62     7    1
    14    72     7    1
    15     8    64    1
    16     8    71    1
    17     9    66    1
    18     9    76    1
    19    10    65    1
    20    10   152    1
    21    67    11    1
    22    11   155    1
    23    12    68    1
    24    12    81    1
    25    70    13    1
    26    87    13    1
    27    14    72    1
    28    14    84    1
    29    69    15    1
    30    15   162    1
    31    73    16    1
    32    16   166    1
    33    74    17    1
    34    17   172    1
    35    75    18    1
    36    18   173    1
    37    77    19    1
    38    19   174    1
    39    78    20    1
    40    20   175    1
    41    21    79    1
    42    21   178    1
    43    80    22    1
    44    22   179    1
    45    82    23    1
    46    23   184    1
    47    83    24    1
    48    24   185    1
    49    25    87    1
    50    25    92    1
    51    26    85    1
    52    26   186    1
    53    86    27    1
    54    27   187    1
    55    28    88    1
    56    28   192    1
    57    90    29    1
    58    29   193    1
    59    91    30    1
    60    30   194    1
    61    93    31    1
    62    31   195    1
    63    32    33    1
    64    32    35    1
    65    32    40    1
    66    32    47    1
    67    33    34    1
    68    33    39    1
    69    33    94    1
    70    34    36    1
    71    34    44    1
    72    34    95    1
    73    35    38    1
    74    35    43    1
    75    35    96    1
    76    36    37    1
    77    36    41    1
    78    36    97    1
    79    37    42    1
    80    37    48    1
    81    37    51    1
    82    38    39    1
    83    38    98    1
    84    39    99    1
    85    39   100    1
    86    40    41    1
    87    40   101    1
    88    40   102    1
    89    41   103    1
    90    41   104    1
    91    42    45    1
    92    42    49    1
    93    42   105    1
    94    43    46    1
    95    43    53    1
    96    43   106    1
    97    44    45    1
    98    44   107    1
    99    44   108    1
   100    45   109    1
   101    45   110    1
   102    46    54    1
   103    47   111    1
   104    47   112    1
   105    47   113    1
   106    48    52    1
   107    48   114    1
   108    48   115    1
   109    49    50    1
   110    49   116    1
   111    49   117    1
   112    50    52    1
   113    50    55    1
   114    50   118    1
   115    51   119    1
   116    51   120    1
   117    51   121    1
   118    52   122    1
   119    52   123    1
   120    53   124    1
   121    53   125    1
   122    53   126    1
   123    54    56    1
   124    54   127    1
   125    54   128    1
   126    55    59    1
   127    56    58    1
   128    56   129    1
   129    56   130    1
   130    57    58    1
   131    57   131    1
   132    57   132    1
   133    58    63    1
   134    58   133    1
   135    59    60    1
   136    59   134    1
   137    60    62    1
   138    60   135    1
   139    61    62    1
   140    61    65    1
   141    61   136    1
   142    62   137    1
   143    63   138    1
   144    63   139    1
   145    63   140    1
   146    64    67    1
   147    64   141    1
   148    65   142    1
   149    65   143    1
   150    66    70    1
   151    66   144    1
   152    67    69    1
   153    67   145    1
   154    68    75    1
   155    68   146    1
   156    69    73    1
   157    69   147    1
   158    70    74    1
   159    70   148    1
   160    71    73    1
   161    71    79    1
   162    71   149    1
   163    72    77    1
   164    72   150    1
   165    73   151    1
   166    74    78    1
   167    74   153    1
   168    75    80    1
   169    75   154    1
   170    76    78    1
   171    76    85    1
   172    76   156    1
   173    77    82    1
   174    77   157    1
   175    78   158    1
   176    79   159    1
   177    79   160    1
   178    80    83    1
   179    80   161    1
   180    81    83    1
   181    81    88    1
   182    81   163    1
   183    82    86    1
   184    82   164    1
   185    83   165    1
   186    84    86    1
   187    84    89    1
   188    84   167    1
   189    85   168    1
   190    85   169    1
   191    86   170    1
   192    87    90    1
   193    87   171    1
   194    88   176    1
   195    88   177    1
   196    89   180    1
   197    89   181    1
   198    89   182    1
   199    90    91    1
   200    90   183    1
   201    91    93    1
   202    91   188    1
   203    92    93    1
   204    92   189    1
   205    92   190    1
   206    93   191    1
