@<TRIPOS>MOLECULE
IMPHY000625
 35 34 0 0 0
SMALL
GASTEIGER

@<TRIPOS>ATOM
      1 O           7.1962    0.7500    0.0000 O.3     1  UNL1       -0.4646
      2 O           6.3301   -0.7500    0.0000 O.2     1  UNL1       -0.2509
      3 C           4.5981    0.2500    0.0000 C.3     1  UNL1       -0.0430
      4 C           3.7320    0.7500    0.0000 C.3     1  UNL1       -0.0528
      5 C           9.7942    0.2500    0.0000 C.3     1  UNL1       -0.0502
      6 C           8.9282    0.7500    0.0000 C.3     1  UNL1       -0.0185
      7 C           5.4641    0.7500    0.0000 C.3     1  UNL1        0.0449
      8 C           2.8660    0.2500    0.0000 C.3     1  UNL1       -0.0559
      9 C          10.6603    0.7500    0.0000 C.3     1  UNL1       -0.0558
     10 C           8.0622    0.2500    0.0000 C.3     1  UNL1        0.0925
     11 C           6.3301    0.2500    0.0000 C.2     1  UNL1        0.3071
     12 C           2.0000    0.7500    0.0000 C.3     1  UNL1       -0.0653
     13 C          11.5263    0.2500    0.0000 C.3     1  UNL1       -0.0653
     14 H           4.1996   -0.2249    0.0000 H       1  UNL1        0.0270
     15 H           4.9966   -0.2249    0.0000 H       1  UNL1        0.0270
     16 H           4.1306    1.2250    0.0000 H       1  UNL1        0.0265
     17 H           3.3335    1.2250    0.0000 H       1  UNL1        0.0265
     18 H           9.3957   -0.2249    0.0000 H       1  UNL1        0.0266
     19 H          10.1928   -0.2249    0.0000 H       1  UNL1        0.0266
     20 H           9.3267    1.2250    0.0000 H       1  UNL1        0.0298
     21 H           8.5297    1.2250    0.0000 H       1  UNL1        0.0298
     22 H           5.8626    1.2250    0.0000 H       1  UNL1        0.0377
     23 H           5.0656    1.2250    0.0000 H       1  UNL1        0.0377
     24 H           2.4675   -0.2249    0.0000 H       1  UNL1        0.0263
     25 H           3.2646   -0.2249    0.0000 H       1  UNL1        0.0263
     26 H          11.0588    1.2250    0.0000 H       1  UNL1        0.0263
     27 H          10.2617    1.2250    0.0000 H       1  UNL1        0.0263
     28 H           7.6636   -0.2249    0.0000 H       1  UNL1        0.0697
     29 H           8.4607   -0.2249    0.0000 H       1  UNL1        0.0697
     30 H           2.3100    1.2869    0.0000 H       1  UNL1        0.0230
     31 H           1.4631    1.0600    0.0000 H       1  UNL1        0.0230
     32 H           1.6900    0.2131    0.0000 H       1  UNL1        0.0230
     33 H          11.2163   -0.2869    0.0000 H       1  UNL1        0.0230
     34 H          12.0632   -0.0600    0.0000 H       1  UNL1        0.0230
     35 H          11.8363    0.7869    0.0000 H       1  UNL1        0.0230
@<TRIPOS>BOND
     1     1    10    1
     2     1    11    1
     3     2    11    2
     4     3     4    1
     5     3     7    1
     6     3    14    1
     7     3    15    1
     8     4     8    1
     9     4    16    1
    10     4    17    1
    11     5     6    1
    12     5     9    1
    13     5    18    1
    14     5    19    1
    15     6    10    1
    16     6    20    1
    17     6    21    1
    18     7    11    1
    19     7    22    1
    20     7    23    1
    21     8    12    1
    22     8    24    1
    23     8    25    1
    24     9    13    1
    25     9    26    1
    26     9    27    1
    27    10    28    1
    28    10    29    1
    29    12    30    1
    30    12    31    1
    31    12    32    1
    32    13    33    1
    33    13    34    1
    34    13    35    1
