@<TRIPOS>MOLECULE
IMPHY007920
 50 53 0 0 0
SMALL
GASTEIGER

@<TRIPOS>ATOM
      1 O           9.6654   -2.3998    0.0000 O.3     1  UNL1       -0.4814
      2 O           6.0682   -2.3220    0.0000 O.2     1  UNL1       -0.4543
      3 O           7.8167    0.7126    0.0000 O.3     1  UNL1       -0.5052
      4 O           6.0682    0.6780    0.0000 O.2     1  UNL1       -0.2863
      5 O           2.5381   -0.2979    0.0000 O.3     1  UNL1       -0.5065
      6 C          10.6092   -1.8645    0.0000 C.3     1  UNL1        0.1235
      7 C           8.7343   -0.8012    0.0000 C.ar    1  UNL1        0.0588
      8 C           8.7343   -1.8428    0.0000 C.ar    1  UNL1        0.1359
      9 C           6.9343   -0.8220    0.0000 C.ar    1  UNL1        0.1067
     10 C           6.9343   -1.8220    0.0000 C.ar    1  UNL1        0.1463
     11 C          10.6092   -0.7795    0.0000 C.2     1  UNL1       -0.0408
     12 C           5.2022   -0.8220    0.0000 C.ar    1  UNL1        0.0716
     13 C           7.8282   -0.2874    0.0000 C.ar    1  UNL1        0.1418
     14 C           7.8282   -2.3567    0.0000 C.ar    1  UNL1        0.0240
     15 C           9.6654   -0.2443    0.0000 C.2     1  UNL1       -0.0478
     16 C           6.0682   -0.3220    0.0000 C.ar    1  UNL1        0.2041
     17 C          11.6092   -1.8684    0.0000 C.3     1  UNL1       -0.0215
     18 C          11.1059   -2.7325    0.0000 C.3     1  UNL1       -0.0215
     19 C           4.3083   -0.2874    0.0000 C.ar    1  UNL1        0.0121
     20 C           5.2022   -1.8220    0.0000 C.ar    1  UNL1        0.1398
     21 C           4.3198    0.7126    0.0000 C.3     1  UNL1       -0.0050
     22 C           3.4022   -0.8012    0.0000 C.ar    1  UNL1        0.1212
     23 C           4.3083   -2.3567    0.0000 C.ar    1  UNL1       -0.0152
     24 C           3.4022   -1.8428    0.0000 C.ar    1  UNL1       -0.0164
     25 C           3.4597    1.2226    0.0000 C.2     1  UNL1       -0.0808
     26 C           3.4712    2.2225    0.0000 C.2     1  UNL1       -0.0793
     27 C           2.6110    2.7325    0.0000 C.3     1  UNL1       -0.0440
     28 C           4.3430    2.7124    0.0000 C.3     1  UNL1       -0.0440
     29 H          11.1450   -0.4675    0.0000 H       1  UNL1        0.0611
     30 H           7.8210   -2.9766    0.0000 H       1  UNL1        0.0691
     31 H           9.6583    0.3757    0.0000 H       1  UNL1        0.0624
     32 H          10.5678   -3.0404    0.0000 H       1  UNL1        0.0271
     33 H          11.6068   -2.4884    0.0000 H       1  UNL1        0.0271
     34 H          12.2292   -1.8708    0.0000 H       1  UNL1        0.0271
     35 H          11.6116   -1.2484    0.0000 H       1  UNL1        0.0271
     36 H          11.4138   -3.2706    0.0000 H       1  UNL1        0.0271
     37 H          11.6440   -2.4245    0.0000 H       1  UNL1        0.0271
     38 H           4.9291    0.5979    0.0000 H       1  UNL1        0.0357
     39 H           4.5386    1.2927    0.0000 H       1  UNL1        0.0357
     40 H           4.3154   -2.9766    0.0000 H       1  UNL1        0.0656
     41 H           2.8665   -2.1549    0.0000 H       1  UNL1        0.0655
     42 H           2.9192    0.9188    0.0000 H       1  UNL1        0.0575
     43 H           8.3500    1.0288    0.0000 H       1  UNL1        0.2922
     44 H           2.0000   -0.6058    0.0000 H       1  UNL1        0.2921
     45 H           2.9272    3.2658    0.0000 H       1  UNL1        0.0274
     46 H           4.6468    2.1720    0.0000 H       1  UNL1        0.0274
     47 H           4.8835    3.0162    0.0000 H       1  UNL1        0.0274
     48 H           4.0392    3.2529    0.0000 H       1  UNL1        0.0274
     49 H           2.0777    3.0486    0.0000 H       1  UNL1        0.0274
     50 H           2.2948    2.1992    0.0000 H       1  UNL1        0.0274
@<TRIPOS>BOND
     1     1     6    1
     2     1     8    1
     3     2    10   ar
     4     2    20   ar
     5     3    13    1
     6     3    43    1
     7     4    16    2
     8     5    22    1
     9     5    44    1
    10     6    11    1
    11     6    17    1
    12     6    18    1
    13     7     8   ar
    14     7    13   ar
    15     7    15    1
    16     8    14   ar
    17     9    10   ar
    18     9    13   ar
    19     9    16   ar
    20    10    14   ar
    21    11    15    2
    22    11    29    1
    23    12    16   ar
    24    12    19   ar
    25    12    20   ar
    26    14    30    1
    27    15    31    1
    28    17    33    1
    29    17    34    1
    30    17    35    1
    31    18    32    1
    32    18    36    1
    33    18    37    1
    34    19    21    1
    35    19    22   ar
    36    20    23   ar
    37    21    25    1
    38    21    38    1
    39    21    39    1
    40    22    24   ar
    41    23    24   ar
    42    23    40    1
    43    24    41    1
    44    25    26    2
    45    25    42    1
    46    26    27    1
    47    26    28    1
    48    27    45    1
    49    27    49    1
    50    27    50    1
    51    28    46    1
    52    28    47    1
    53    28    48    1
