@<TRIPOS>MOLECULE
IMPHY006613
 20 20 0 0 0
SMALL
GASTEIGER

@<TRIPOS>ATOM
      1 O           3.7320    1.0000    0.0000 O.3     1  UNL1       -0.4614
      2 O           2.0000    1.0000    0.0000 O.2     1  UNL1       -0.2449
      3 N           3.7320   -2.0000    0.0000 N.ar    1  UNL1       -0.2624
      4 C           2.8660   -0.5000    0.0000 C.ar    1  UNL1        0.0770
      5 C           3.7320    2.0000    0.0000 C.3     1  UNL1        0.0900
      6 C           2.8660    0.5000    0.0000 C.2     1  UNL1        0.3407
      7 C           2.0000   -1.0000    0.0000 C.ar    1  UNL1       -0.0449
      8 C           4.5981    2.5000    0.0000 C.3     1  UNL1       -0.0306
      9 C           3.7320   -1.0000    0.0000 C.ar    1  UNL1        0.0415
     10 C           2.0000   -2.0000    0.0000 C.ar    1  UNL1       -0.0428
     11 C           2.8660   -2.5000    0.0000 C.ar    1  UNL1        0.0276
     12 H           3.5200    2.5826    0.0000 H       1  UNL1        0.0695
     13 H           3.1215    1.8923    0.0000 H       1  UNL1        0.0695
     14 H           1.4631   -0.6900    0.0000 H       1  UNL1        0.0627
     15 H           4.9081    1.9631    0.0000 H       1  UNL1        0.0262
     16 H           5.1350    2.8100    0.0000 H       1  UNL1        0.0262
     17 H           4.2881    3.0369    0.0000 H       1  UNL1        0.0262
     18 H           4.2690   -0.6900    0.0000 H       1  UNL1        0.0838
     19 H           1.4631   -2.3100    0.0000 H       1  UNL1        0.0633
     20 H           2.8660   -3.1200    0.0000 H       1  UNL1        0.0829
@<TRIPOS>BOND
     1     1     5    1
     2     1     6    1
     3     2     6    2
     4     3     9   ar
     5     3    11   ar
     6     4     6    1
     7     4     7   ar
     8     4     9   ar
     9     5     8    1
    10     5    12    1
    11     5    13    1
    12     7    10   ar
    13     7    14    1
    14     8    15    1
    15     8    16    1
    16     8    17    1
    17     9    18    1
    18    10    11   ar
    19    10    19    1
    20    11    20    1
