@<TRIPOS>MOLECULE
IMPHY016453
 20 20 0 0 0
SMALL
GASTEIGER

@<TRIPOS>ATOM
      1 N           3.7320   -1.0000    0.0000 N.ar    1  UNL1       -0.2599
      2 C           4.5981    0.5000    0.0000 C.ar    1  UNL1       -0.0295
      3 C           5.4641    1.0000    0.0000 C.3     1  UNL1       -0.0291
      4 C           3.7320    1.0000    0.0000 C.ar    1  UNL1       -0.0555
      5 C           4.5981   -0.5000    0.0000 C.ar    1  UNL1        0.0310
      6 C           6.3301    0.5000    0.0000 C.3     1  UNL1       -0.0612
      7 C           2.8660   -0.5000    0.0000 C.ar    1  UNL1        0.0382
      8 C           2.8660    0.5000    0.0000 C.ar    1  UNL1       -0.0404
      9 C           2.0000   -1.0000    0.0000 C.3     1  UNL1       -0.0224
     10 H           5.8626    1.4750    0.0000 H       1  UNL1        0.0311
     11 H           5.0656    1.4750    0.0000 H       1  UNL1        0.0311
     12 H           3.7320    1.6200    0.0000 H       1  UNL1        0.0621
     13 H           5.1350   -0.8100    0.0000 H       1  UNL1        0.0832
     14 H           6.0201   -0.0369    0.0000 H       1  UNL1        0.0233
     15 H           6.8671    0.1900    0.0000 H       1  UNL1        0.0233
     16 H           6.6401    1.0369    0.0000 H       1  UNL1        0.0233
     17 H           2.3291    0.8100    0.0000 H       1  UNL1        0.0635
     18 H           1.6900   -0.4631    0.0000 H       1  UNL1        0.0292
     19 H           1.4631   -1.3100    0.0000 H       1  UNL1        0.0292
     20 H           2.3100   -1.5369    0.0000 H       1  UNL1        0.0292
@<TRIPOS>BOND
     1     1     5   ar
     2     1     7   ar
     3     2     3    1
     4     2     4   ar
     5     2     5   ar
     6     3     6    1
     7     3    10    1
     8     3    11    1
     9     4     8   ar
    10     4    12    1
    11     5    13    1
    12     6    14    1
    13     6    15    1
    14     6    16    1
    15     7     8   ar
    16     7     9    1
    17     8    17    1
    18     9    18    1
    19     9    19    1
    20     9    20    1
