@<TRIPOS>MOLECULE
IMPHY016672
 38 39 0 0 0
SMALL
GASTEIGER

@<TRIPOS>ATOM
      1 O           4.8069    1.8444    0.0000 O.2     1  UNL1       -0.2921
      2 C           5.3792   -0.7512    0.0000 C.3     1  UNL1        0.0085
      3 C           3.6155    0.6410    0.0000 C.3     1  UNL1        0.0244
      4 C           5.3742    0.2488    0.0000 C.2     1  UNL1        0.0014
      5 C           6.3269   -1.0512    0.0000 C.3     1  UNL1       -0.0387
      6 C           3.1861   -0.2621    0.0000 C.3     1  UNL1       -0.0392
      7 C           4.6005   -1.3786    0.0000 C.2     1  UNL1       -0.0691
      8 C           6.9065   -0.2436    0.0000 C.3     1  UNL1       -0.0305
      9 C           3.6244   -1.1609    0.0000 C.3     1  UNL1       -0.0308
     10 C           4.5893    0.8684    0.0000 C.2     1  UNL1        0.1631
     11 C           6.3189    0.5582    0.0000 C.2     1  UNL1       -0.0655
     12 C           2.9881    1.4197    0.0000 C.3     1  UNL1       -0.0369
     13 C           6.6248    1.5103    0.0000 C.3     1  UNL1       -0.0431
     14 C           2.0000    1.2657    0.0000 C.3     1  UNL1       -0.0620
     15 C           3.3488    2.3524    0.0000 C.3     1  UNL1       -0.0620
     16 C           4.8278   -2.3524    0.0000 C.2     1  UNL1       -0.0989
     17 H           5.4937   -1.3605    0.0000 H       1  UNL1        0.0395
     18 H           4.0044    0.1582    0.0000 H       1  UNL1        0.0383
     19 H           6.0787   -1.6194    0.0000 H       1  UNL1        0.0277
     20 H           6.8658   -1.3578    0.0000 H       1  UNL1        0.0277
     21 H           2.6994    0.1220    0.0000 H       1  UNL1        0.0275
     22 H           2.7033   -0.6511    0.0000 H       1  UNL1        0.0275
     23 H           7.3694   -0.6560    0.0000 H       1  UNL1        0.0310
     24 H           7.3653    0.1734    0.0000 H       1  UNL1        0.0310
     25 H           3.0207   -1.3019    0.0000 H       1  UNL1        0.0310
     26 H           3.6275   -1.7809    0.0000 H       1  UNL1        0.0310
     27 H           2.7644    0.8414    0.0000 H       1  UNL1        0.0302
     28 H           7.2151    1.3206    0.0000 H       1  UNL1        0.0275
     29 H           6.8145    2.1006    0.0000 H       1  UNL1        0.0275
     30 H           6.0345    1.7000    0.0000 H       1  UNL1        0.0275
     31 H           1.9045    1.8783    0.0000 H       1  UNL1        0.0233
     32 H           1.3874    1.1703    0.0000 H       1  UNL1        0.0233
     33 H           2.0955    0.6531    0.0000 H       1  UNL1        0.0233
     34 H           3.9270    2.1288    0.0000 H       1  UNL1        0.0233
     35 H           3.5724    2.9306    0.0000 H       1  UNL1        0.0233
     36 H           2.7705    2.5760    0.0000 H       1  UNL1        0.0233
     37 H           4.3755   -2.7764    0.0000 H       1  UNL1        0.0535
     38 H           5.4212   -2.5322    0.0000 H       1  UNL1        0.0535
@<TRIPOS>BOND
     1     1    10    2
     2     2     4    1
     3     2     5    1
     4     2     7    1
     5     2    17    1
     6     3     6    1
     7     3    10    1
     8     3    12    1
     9     3    18    1
    10     4    10    1
    11     4    11    2
    12     5     8    1
    13     5    19    1
    14     5    20    1
    15     6     9    1
    16     6    21    1
    17     6    22    1
    18     7     9    1
    19     7    16    2
    20     8    11    1
    21     8    23    1
    22     8    24    1
    23     9    25    1
    24     9    26    1
    25    11    13    1
    26    12    14    1
    27    12    15    1
    28    12    27    1
    29    13    28    1
    30    13    29    1
    31    13    30    1
    32    14    31    1
    33    14    32    1
    34    14    33    1
    35    15    34    1
    36    15    35    1
    37    15    36    1
    38    16    37    1
    39    16    38    1
