@<TRIPOS>MOLECULE
IMPHY009831
 40 41 0 0 0
SMALL
GASTEIGER

@<TRIPOS>ATOM
      1 O           4.0388    1.8123    0.0000 O.3     1  UNL1       -0.3631
      2 O           4.5691   -0.5355    0.0000 O.3     1  UNL1       -0.3557
      3 O           2.0000   -0.2265    0.0000 O.2     1  UNL1       -0.2942
      4 C           4.3479    0.8613    0.0000 C.3     1  UNL1        0.0954
      5 C           3.7601    0.0523    0.0000 C.3     1  UNL1        0.1509
      6 C           5.3479    0.8613    0.0000 C.3     1  UNL1       -0.0205
      7 C           4.8479    2.4001    0.0000 C.3     1  UNL1        0.0851
      8 C           5.6569    1.8123    0.0000 C.3     1  UNL1       -0.0179
      9 C           2.9511   -0.5355    0.0000 C.2     1  UNL1        0.1699
     10 C           4.2601   -1.4866    0.0000 C.3     1  UNL1        0.0873
     11 C           3.2601   -1.4866    0.0000 C.3     1  UNL1        0.0390
     12 C           3.1723    0.8613    0.0000 C.3     1  UNL1       -0.0263
     13 C           4.2601    3.2091    0.0000 C.3     1  UNL1       -0.0322
     14 C           5.4356    3.2091    0.0000 C.2     1  UNL1       -0.0600
     15 C           4.8479   -2.2956    0.0000 C.2     1  UNL1       -0.0509
     16 C           4.4411   -3.2091    0.0000 C.3     1  UNL1       -0.0416
     17 C           6.4302    3.1046    0.0000 C.2     1  UNL1       -0.1000
     18 C           5.8424   -2.1911    0.0000 C.2     1  UNL1       -0.0973
     19 H           3.5083    0.9943    0.0000 H       1  UNL1        0.0629
     20 H           5.2830    0.2447    0.0000 H       1  UNL1        0.0292
     21 H           5.9543    0.7324    0.0000 H       1  UNL1        0.0292
     22 H           6.2233    1.5602    0.0000 H       1  UNL1        0.0297
     23 H           5.9669    2.3493    0.0000 H       1  UNL1        0.0297
     24 H           4.8724   -1.3896    0.0000 H       1  UNL1        0.0647
     25 H           2.6536   -1.6155    0.0000 H       1  UNL1        0.0371
     26 H           3.3249   -2.1032    0.0000 H       1  UNL1        0.0371
     27 H           3.6739    1.2257    0.0000 H       1  UNL1        0.0262
     28 H           2.8079    1.3629    0.0000 H       1  UNL1        0.0262
     29 H           2.6707    0.4969    0.0000 H       1  UNL1        0.0262
     30 H           4.7617    3.5736    0.0000 H       1  UNL1        0.0260
     31 H           3.8956    3.7107    0.0000 H       1  UNL1        0.0260
     32 H           3.7585    2.8447    0.0000 H       1  UNL1        0.0260
     33 H           5.1835    3.7755    0.0000 H       1  UNL1        0.0594
     34 H           3.8747   -2.9570    0.0000 H       1  UNL1        0.0275
     35 H           4.1890   -3.7755    0.0000 H       1  UNL1        0.0275
     36 H           5.0075   -3.4613    0.0000 H       1  UNL1        0.0275
     37 H           6.6823    2.5382    0.0000 H       1  UNL1        0.0533
     38 H           6.7946    3.6062    0.0000 H       1  UNL1        0.0533
     39 H           6.2068   -2.6927    0.0000 H       1  UNL1        0.0535
     40 H           6.0946   -1.6247    0.0000 H       1  UNL1        0.0535
@<TRIPOS>BOND
     1     1     4    1
     2     1     7    1
     3     2     5    1
     4     2    10    1
     5     3     9    2
     6     4     5    1
     7     4     6    1
     8     4    19    1
     9     5     9    1
    10     5    12    1
    11     6     8    1
    12     6    20    1
    13     6    21    1
    14     7     8    1
    15     7    13    1
    16     7    14    1
    17     8    22    1
    18     8    23    1
    19     9    11    1
    20    10    11    1
    21    10    15    1
    22    10    24    1
    23    11    25    1
    24    11    26    1
    25    12    27    1
    26    12    28    1
    27    12    29    1
    28    13    30    1
    29    13    31    1
    30    13    32    1
    31    14    17    2
    32    14    33    1
    33    15    16    1
    34    15    18    2
    35    16    34    1
    36    16    35    1
    37    16    36    1
    38    17    37    1
    39    17    38    1
    40    18    39    1
    41    18    40    1
