@<TRIPOS>MOLECULE
IMPHY012112
 32 32 0 0 0
SMALL
GASTEIGER

@<TRIPOS>ATOM
      1 O           5.2464   -1.4571    0.0000 O.3     1  UNL1       -0.3657
      2 O           6.3342    0.8907    0.0000 O.3     1  UNL1       -0.3892
      3 N           2.7431   -0.5092    0.0000 N.4     1  UNL1        0.2387
      4 C           4.4374   -0.8693    0.0000 C.3     1  UNL1        0.1012
      5 C           3.4863   -1.1784    0.0000 C.3     1  UNL1       -0.0039
      6 C           4.7464    0.0817    0.0000 C.3     1  UNL1        0.0070
      7 C           5.7464    0.0817    0.0000 C.3     1  UNL1        0.0836
      8 C           6.0554   -0.8693    0.0000 C.3     1  UNL1        0.0824
      9 C           2.0000    0.1599    0.0000 C.3     1  UNL1       -0.0417
     10 C           2.0740   -1.2524    0.0000 C.3     1  UNL1       -0.0417
     11 C           3.4123    0.2339    0.0000 C.3     1  UNL1       -0.0417
     12 C           7.0064   -1.1784    0.0000 C.3     1  UNL1       -0.0362
     13 H           4.3404   -1.4817    0.0000 H       1  UNL1        0.0650
     14 H           2.9977   -1.5601    0.0000 H       1  UNL1        0.0840
     15 H           3.7774   -1.7258    0.0000 H       1  UNL1        0.0840
     16 H           4.8112    0.6983    0.0000 H       1  UNL1        0.0318
     17 H           4.1399    0.2106    0.0000 H       1  UNL1        0.0318
     18 H           5.4649    0.6341    0.0000 H       1  UNL1        0.0620
     19 H           6.1524   -1.4817    0.0000 H       1  UNL1        0.0619
     20 H           2.4149    0.6207    0.0000 H       1  UNL1        0.0778
     21 H           1.5392    0.5748    0.0000 H       1  UNL1        0.0778
     22 H           1.5851   -0.3008    0.0000 H       1  UNL1        0.0778
     23 H           1.6133   -0.8375    0.0000 H       1  UNL1        0.0778
     24 H           1.6592   -1.7131    0.0000 H       1  UNL1        0.0778
     25 H           2.5348   -1.6672    0.0000 H       1  UNL1        0.0778
     26 H           3.8730   -0.1809    0.0000 H       1  UNL1        0.0778
     27 H           3.8271    0.6947    0.0000 H       1  UNL1        0.0778
     28 H           2.9515    0.6488    0.0000 H       1  UNL1        0.0778
     29 H           6.8148   -1.7680    0.0000 H       1  UNL1        0.0255
     30 H           7.5961   -1.3700    0.0000 H       1  UNL1        0.0255
     31 H           7.1980   -0.5887    0.0000 H       1  UNL1        0.0255
     32 H           6.0820    1.4571    0.0000 H       1  UNL1        0.2099
@<TRIPOS>UNITY_ATOM_ATTR
3 1
charge 1
@<TRIPOS>BOND
     1     1     4    1
     2     1     8    1
     3     7     2    1
     4     2    32    1
     5     3     5    1
     6     3     9    1
     7     3    10    1
     8     3    11    1
     9     4     5    1
    10     4     6    1
    11     4    13    1
    12     5    14    1
    13     5    15    1
    14     6     7    1
    15     6    16    1
    16     6    17    1
    17     7     8    1
    18     7    18    1
    19     8    12    1
    20     8    19    1
    21     9    20    1
    22     9    21    1
    23     9    22    1
    24    10    23    1
    25    10    24    1
    26    10    25    1
    27    11    26    1
    28    11    27    1
    29    11    28    1
    30    12    29    1
    31    12    30    1
    32    12    31    1
