@<TRIPOS>MOLECULE
IMPHY000324
 76 80 0 0 0
SMALL
GASTEIGER

@<TRIPOS>ATOM
      1 O           2.0000   -3.6815    0.0000 O.2     1  UNL1       -0.2974
      2 C           5.5301   -1.6573    0.0000 C.3     1  UNL1       -0.0194
      3 C           4.6641   -2.1573    0.0000 C.3     1  UNL1       -0.0192
      4 C           6.3961   -2.1573    0.0000 C.3     1  UNL1       -0.0289
      5 C           4.6638   -1.1569    0.0000 C.3     1  UNL1       -0.0401
      6 C           7.3062   -1.6505    0.0000 C.3     1  UNL1       -0.0231
      7 C           4.6641   -3.1573    0.0000 C.3     1  UNL1       -0.0282
      8 C           7.3142   -0.6089    0.0000 C.3     1  UNL1       -0.0233
      9 C           5.5141   -0.6158    0.0000 C.3     1  UNL1       -0.0460
     10 C           6.3961   -3.1573    0.0000 C.3     1  UNL1       -0.0489
     11 C           3.7702   -1.6227    0.0000 C.3     1  UNL1       -0.0399
     12 C           6.4121   -0.0881    0.0000 C.3     1  UNL1       -0.0463
     13 C           5.5301   -3.6573    0.0000 C.3     1  UNL1       -0.0490
     14 C           8.3022   -0.2991    0.0000 C.3     1  UNL1       -0.0325
     15 C           8.2893   -1.9755    0.0000 C.3     1  UNL1       -0.0466
     16 C           3.7702   -3.6920    0.0000 C.3     1  UNL1        0.0092
     17 C           8.9036   -1.1420    0.0000 C.3     1  UNL1       -0.0489
     18 C           7.2984   -2.6505    0.0000 C.3     1  UNL1       -0.0588
     19 C           2.8641   -2.1365    0.0000 C.3     1  UNL1        0.0064
     20 C           7.3219    0.3911    0.0000 C.3     1  UNL1       -0.0588
     21 C           8.6202    0.6490    0.0000 C.3     1  UNL1       -0.0405
     22 C           2.8641   -3.1781    0.0000 C.2     1  UNL1        0.1337
     23 C           9.6003    0.8477    0.0000 C.3     1  UNL1       -0.0497
     24 C           7.9581    1.3985    0.0000 C.3     1  UNL1       -0.0621
     25 C           9.9182    1.7958    0.0000 C.3     1  UNL1       -0.0465
     26 C          10.8983    1.9945    0.0000 C.3     1  UNL1       -0.0232
     27 C          11.5604    1.2450    0.0000 C.3     1  UNL1       -0.0587
     28 C          11.2163    2.9426    0.0000 C.2     1  UNL1       -0.0769
     29 C          12.1964    3.1412    0.0000 C.3     1  UNL1       -0.0438
     30 C          10.5542    3.6920    0.0000 C.2     1  UNL1       -0.0995
     31 H           7.1290   -2.5880    0.0000 H       1  UNL1        0.0312
     32 H           4.8759   -0.5743    0.0000 H       1  UNL1        0.0276
     33 H           4.0532   -1.0493    0.0000 H       1  UNL1        0.0276
     34 H           4.6706   -4.0073    0.0000 H       1  UNL1        0.0310
     35 H           5.2960   -0.0354    0.0000 H       1  UNL1        0.0271
     36 H           4.9049   -0.7313    0.0000 H       1  UNL1        0.0271
     37 H           6.6082   -3.7399    0.0000 H       1  UNL1        0.0268
     38 H           7.0067   -3.0497    0.0000 H       1  UNL1        0.0268
     39 H           4.1748   -1.1529    0.0000 H       1  UNL1        0.0275
     40 H           3.3765   -1.1436    0.0000 H       1  UNL1        0.0275
     41 H           6.8094    0.3879    0.0000 H       1  UNL1        0.0271
     42 H           6.0111    0.3848    0.0000 H       1  UNL1        0.0271
     43 H           5.1316   -4.1323    0.0000 H       1  UNL1        0.0268
     44 H           5.9286   -4.1323    0.0000 H       1  UNL1        0.0268
     45 H           9.1429   -0.1737    0.0000 H       1  UNL1        0.0309
     46 H           8.0339   -2.5404    0.0000 H       1  UNL1        0.0271
     47 H           8.8243   -2.2888    0.0000 H       1  UNL1        0.0271
     48 H           3.3765   -4.1710    0.0000 H       1  UNL1        0.0344
     49 H           4.1748   -4.1618    0.0000 H       1  UNL1        0.0344
     50 H           9.3613   -1.5602    0.0000 H       1  UNL1        0.0268
     51 H           9.3677   -0.7308    0.0000 H       1  UNL1        0.0268
     52 H           6.6785   -2.6457    0.0000 H       1  UNL1        0.0235
     53 H           7.2937   -3.2704    0.0000 H       1  UNL1        0.0235
     54 H           7.9184   -2.6552    0.0000 H       1  UNL1        0.0235
     55 H           2.6550   -1.5528    0.0000 H       1  UNL1        0.0342
     56 H           2.2532   -2.2426    0.0000 H       1  UNL1        0.0342
     57 H           7.9419    0.3863    0.0000 H       1  UNL1        0.0235
     58 H           7.3267    1.0111    0.0000 H       1  UNL1        0.0235
     59 H           6.7019    0.3959    0.0000 H       1  UNL1        0.0235
     60 H           8.8173    1.2368    0.0000 H       1  UNL1        0.0301
     61 H           9.6160    0.2279    0.0000 H       1  UNL1        0.0268
     62 H          10.2134    0.7556    0.0000 H       1  UNL1        0.0268
     63 H           8.4228    1.8090    0.0000 H       1  UNL1        0.0233
     64 H           7.5476    1.8631    0.0000 H       1  UNL1        0.0233
     65 H           7.4935    0.9880    0.0000 H       1  UNL1        0.0233
     66 H           9.9024    2.4156    0.0000 H       1  UNL1        0.0271
     67 H           9.3051    1.8879    0.0000 H       1  UNL1        0.0271
     68 H          10.7012    1.4066    0.0000 H       1  UNL1        0.0343
     69 H          11.0957    0.8345    0.0000 H       1  UNL1        0.0235
     70 H          11.9709    0.7804    0.0000 H       1  UNL1        0.0235
     71 H          12.0250    1.6555    0.0000 H       1  UNL1        0.0235
     72 H          12.3195    2.5336    0.0000 H       1  UNL1        0.0274
     73 H          12.8040    3.2644    0.0000 H       1  UNL1        0.0274
     74 H          12.0732    3.7489    0.0000 H       1  UNL1        0.0274
     75 H          10.7513    4.2798    0.0000 H       1  UNL1        0.0534
     76 H           9.9466    3.5688    0.0000 H       1  UNL1        0.0534
@<TRIPOS>BOND
     1     1    22    2
     2     2     3    1
     3     2     4    1
     4     2     5    1
     5     2     9    1
     6     3     5    1
     7     3     7    1
     8     3    11    1
     9     4     6    1
    10     4    10    1
    11     4    31    1
    12     5    32    1
    13     5    33    1
    14     6     8    1
    15     6    15    1
    16     6    18    1
    17     7    13    1
    18     7    16    1
    19     7    34    1
    20     8    12    1
    21     8    14    1
    22     8    20    1
    23     9    12    1
    24     9    35    1
    25     9    36    1
    26    10    13    1
    27    10    37    1
    28    10    38    1
    29    11    19    1
    30    11    39    1
    31    11    40    1
    32    12    41    1
    33    12    42    1
    34    13    43    1
    35    13    44    1
    36    14    17    1
    37    14    21    1
    38    14    45    1
    39    15    17    1
    40    15    46    1
    41    15    47    1
    42    16    22    1
    43    16    48    1
    44    16    49    1
    45    17    50    1
    46    17    51    1
    47    18    52    1
    48    18    53    1
    49    18    54    1
    50    19    22    1
    51    19    55    1
    52    19    56    1
    53    20    57    1
    54    20    58    1
    55    20    59    1
    56    21    23    1
    57    21    24    1
    58    21    60    1
    59    23    25    1
    60    23    61    1
    61    23    62    1
    62    24    63    1
    63    24    64    1
    64    24    65    1
    65    25    26    1
    66    25    66    1
    67    25    67    1
    68    26    27    1
    69    26    28    1
    70    26    68    1
    71    27    69    1
    72    27    70    1
    73    27    71    1
    74    28    29    1
    75    28    30    2
    76    29    72    1
    77    29    73    1
    78    29    74    1
    79    30    75    1
    80    30    76    1
