@<TRIPOS>MOLECULE
IMPHY001691
 69 71 0 0 0
SMALL
GASTEIGER

@<TRIPOS>ATOM
      1 O           5.1350   -1.9695    0.0000 O.3     1  UNL1       -0.3404
      2 O           6.8671   -1.9695    0.0000 O.3     1  UNL1       -0.3061
      3 O           5.1350   -4.9695    0.0000 O.3     1  UNL1       -0.3864
      4 O           3.4030   -3.9695    0.0000 O.3     1  UNL1       -0.3865
      5 O           6.8671   -3.9695    0.0000 O.3     1  UNL1       -0.3841
      6 O           6.0010   -0.4695    0.0000 O.2     1  UNL1       -0.4666
      7 O           2.5369   -2.4695    0.0000 O.3     1  UNL1       -0.3924
      8 O          10.2267    1.6229    0.0000 O.3     1  UNL1       -0.4643
      9 O           6.0010    2.5305    0.0000 O.3     1  UNL1       -0.4646
     10 O           8.8999    2.7362    0.0000 O.2     1  UNL1       -0.2508
     11 O           7.2091    2.9702    0.0000 O.2     1  UNL1       -0.2452
     12 O          14.4255    5.2795    0.0000 O.3     1  UNL1       -0.5068
     13 C           5.1350   -3.9695    0.0000 C.3     1  UNL1        0.1141
     14 C           4.2690   -3.4695    0.0000 C.3     1  UNL1        0.1119
     15 C           6.0010   -3.4695    0.0000 C.3     1  UNL1        0.1343
     16 C           4.2690   -2.4695    0.0000 C.3     1  UNL1        0.1130
     17 C           6.0010   -2.4695    0.0000 C.3     1  UNL1        0.1921
     18 C           3.4030   -1.9695    0.0000 C.3     1  UNL1        0.0730
     19 C           6.8671   -0.9695    0.0000 C.3     1  UNL1        0.2266
     20 C           7.7331    0.5305    0.0000 C.3     1  UNL1        0.0307
     21 C           7.7331   -0.4695    0.0000 C.2     1  UNL1        0.0019
     22 C           6.8671    1.0305    0.0000 C.2     1  UNL1        0.0785
     23 C           8.5991    1.0305    0.0000 C.3     1  UNL1        0.0559
     24 C           6.0010    0.5305    0.0000 C.2     1  UNL1        0.0988
     25 C           8.5991   -0.9695    0.0000 C.2     1  UNL1       -0.0814
     26 C           9.2419    1.7966    0.0000 C.2     1  UNL1        0.3080
     27 C           6.8671    2.0305    0.0000 C.2     1  UNL1        0.3384
     28 C           9.4651   -0.4695    0.0000 C.3     1  UNL1       -0.0464
     29 C          10.8695    2.3890    0.0000 C.3     1  UNL1        0.0964
     30 C          11.8543    2.2153    0.0000 C.3     1  UNL1        0.0067
     31 C           6.0010    3.5305    0.0000 C.3     1  UNL1        0.0820
     32 C          12.4971    2.9814    0.0000 C.ar    1  UNL1       -0.0439
     33 C          13.4819    2.8077    0.0000 C.ar    1  UNL1       -0.0550
     34 C          12.1551    3.9210    0.0000 C.ar    1  UNL1       -0.0550
     35 C          14.1247    3.5738    0.0000 C.ar    1  UNL1       -0.0199
     36 C          12.7979    4.6871    0.0000 C.ar    1  UNL1       -0.0199
     37 C          13.7827    4.5134    0.0000 C.ar    1  UNL1        0.1169
     38 H           5.6720   -4.2795    0.0000 H       1  UNL1        0.0648
     39 H           4.2690   -4.0895    0.0000 H       1  UNL1        0.0647
     40 H           6.5380   -3.1595    0.0000 H       1  UNL1        0.0671
     41 H           4.2690   -1.8495    0.0000 H       1  UNL1        0.0647
     42 H           6.0010   -1.8495    0.0000 H       1  UNL1        0.0939
     43 H           3.8015   -1.4945    0.0000 H       1  UNL1        0.0584
     44 H           3.0044   -1.4945    0.0000 H       1  UNL1        0.0584
     45 H           7.4040   -1.2795    0.0000 H       1  UNL1        0.1109
     46 H           8.2700    0.2205    0.0000 H       1  UNL1        0.0404
     47 H           4.5981   -5.2795    0.0000 H       1  UNL1        0.2100
     48 H           3.4030   -4.5895    0.0000 H       1  UNL1        0.2100
     49 H           6.8671   -4.5895    0.0000 H       1  UNL1        0.2101
     50 H           8.6711    0.4147    0.0000 H       1  UNL1        0.0387
     51 H           8.2006    1.5055    0.0000 H       1  UNL1        0.0387
     52 H           5.4641    0.8405    0.0000 H       1  UNL1        0.1030
     53 H           8.5991   -1.5895    0.0000 H       1  UNL1        0.0571
     54 H           2.0000   -2.1595    0.0000 H       1  UNL1        0.2095
     55 H           9.7751   -1.0064    0.0000 H       1  UNL1        0.0272
     56 H          10.0021   -0.1595    0.0000 H       1  UNL1        0.0272
     57 H           9.1551    0.0675    0.0000 H       1  UNL1        0.0272
     58 H          11.0815    2.9716    0.0000 H       1  UNL1        0.0701
     59 H          10.3326    2.6990    0.0000 H       1  UNL1        0.0701
     60 H          11.6423    1.6327    0.0000 H       1  UNL1        0.0346
     61 H          12.3912    1.9053    0.0000 H       1  UNL1        0.0346
     62 H           6.6210    3.5305    0.0000 H       1  UNL1        0.0661
     63 H           6.0010    4.1505    0.0000 H       1  UNL1        0.0661
     64 H           5.3810    3.5305    0.0000 H       1  UNL1        0.0661
     65 H          13.6940    2.2251    0.0000 H       1  UNL1        0.0621
     66 H          11.5445    4.0287    0.0000 H       1  UNL1        0.0621
     67 H          14.7353    3.4661    0.0000 H       1  UNL1        0.0654
     68 H          12.5858    5.2697    0.0000 H       1  UNL1        0.0654
     69 H          15.0360    5.1718    0.0000 H       1  UNL1        0.2921
@<TRIPOS>BOND
     1     1    16    1
     2     1    17    1
     3    17     2    1
     4    19     2    1
     5    13     3    1
     6     3    47    1
     7    14     4    1
     8     4    48    1
     9    15     5    1
    10     5    49    1
    11     6    19    1
    12     6    24    1
    13     7    18    1
    14     7    54    1
    15     8    26    1
    16     8    29    1
    17     9    27    1
    18     9    31    1
    19    10    26    2
    20    11    27    2
    21    12    37    1
    22    12    69    1
    23    13    14    1
    24    13    15    1
    25    13    38    1
    26    14    16    1
    27    14    39    1
    28    15    17    1
    29    15    40    1
    30    16    18    1
    31    16    41    1
    32    17    42    1
    33    18    43    1
    34    18    44    1
    35    19    21    1
    36    19    45    1
    37    20    21    1
    38    20    22    1
    39    20    23    1
    40    20    46    1
    41    21    25    2
    42    22    24    2
    43    22    27    1
    44    23    26    1
    45    23    50    1
    46    23    51    1
    47    24    52    1
    48    25    28    1
    49    25    53    1
    50    28    55    1
    51    28    56    1
    52    28    57    1
    53    29    30    1
    54    29    58    1
    55    29    59    1
    56    30    32    1
    57    30    60    1
    58    30    61    1
    59    31    62    1
    60    31    63    1
    61    31    64    1
    62    32    33   ar
    63    32    34   ar
    64    33    35   ar
    65    33    65    1
    66    34    36   ar
    67    34    66    1
    68    35    37   ar
    69    35    67    1
    70    36    37   ar
    71    36    68    1
