@<TRIPOS>MOLECULE
IMPHY007983
 59 62 0 0 0
SMALL
GASTEIGER

@<TRIPOS>ATOM
      1 O           5.1350   -2.7836    0.0000 O.3     1  UNL1       -0.3313
      2 O           6.8671   -2.7836    0.0000 O.3     1  UNL1       -0.4569
      3 O           5.1350   -5.7836    0.0000 O.3     1  UNL1       -0.3864
      4 O           3.4030   -4.7836    0.0000 O.3     1  UNL1       -0.3865
      5 O           6.8671   -4.7836    0.0000 O.3     1  UNL1       -0.3829
      6 O           2.5369   -3.2836    0.0000 O.3     1  UNL1       -0.3924
      7 O           8.5991   -1.7836    0.0000 O.3     1  UNL1       -0.4885
      8 O           8.6431    0.2233    0.0000 O.2     1  UNL1       -0.4582
      9 O           5.1350    0.2164    0.0000 O.3     1  UNL1       -0.5058
     10 O           5.9793    1.7479    0.0000 O.2     1  UNL1       -0.2863
     11 O           9.4695    4.7923    0.0000 O.3     1  UNL1       -0.4914
     12 O           7.7336    5.7857    0.0000 O.3     1  UNL1       -0.5033
     13 C           5.1350   -4.7836    0.0000 C.3     1  UNL1        0.1152
     14 C           4.2690   -4.2836    0.0000 C.3     1  UNL1        0.1120
     15 C           6.0010   -4.2836    0.0000 C.3     1  UNL1        0.1454
     16 C           4.2690   -3.2836    0.0000 C.3     1  UNL1        0.1140
     17 C           6.0010   -3.2836    0.0000 C.3     1  UNL1        0.2310
     18 C           3.4030   -2.7836    0.0000 C.3     1  UNL1        0.0731
     19 C           6.8671   -1.7836    0.0000 C.ar    1  UNL1        0.1726
     20 C           7.7331   -1.2836    0.0000 C.ar    1  UNL1        0.2052
     21 C           6.0010   -1.2836    0.0000 C.ar    1  UNL1        0.0263
     22 C           7.7331   -0.2836    0.0000 C.ar    1  UNL1        0.1870
     23 C           6.8671    0.2164    0.0000 C.ar    1  UNL1        0.1097
     24 C           6.0010   -0.2836    0.0000 C.ar    1  UNL1        0.1349
     25 C           6.8510    1.2579    0.0000 C.ar    1  UNL1        0.2038
     26 C           7.7490    1.7857    0.0000 C.ar    1  UNL1        0.0645
     27 C           8.6511    1.2649    0.0000 C.ar    1  UNL1        0.1040
     28 C           7.7452    2.7857    0.0000 C.ar    1  UNL1       -0.0076
     29 C           9.4651   -1.2836    0.0000 C.3     1  UNL1        0.0791
     30 C           8.6093    3.2890    0.0000 C.ar    1  UNL1       -0.0084
     31 C           6.8772    3.2823    0.0000 C.ar    1  UNL1       -0.0501
     32 C           8.6054    4.2890    0.0000 C.ar    1  UNL1        0.1618
     33 C           6.8734    4.2823    0.0000 C.ar    1  UNL1       -0.0159
     34 C           7.7375    4.7857    0.0000 C.ar    1  UNL1        0.1585
     35 C          10.3375    4.2957    0.0000 C.3     1  UNL1        0.0790
     36 H           5.6720   -5.0936    0.0000 H       1  UNL1        0.0648
     37 H           4.2690   -4.9036    0.0000 H       1  UNL1        0.0647
     38 H           6.5380   -3.9736    0.0000 H       1  UNL1        0.0683
     39 H           4.2690   -2.6636    0.0000 H       1  UNL1        0.0647
     40 H           6.0010   -2.6636    0.0000 H       1  UNL1        0.1084
     41 H           3.8015   -2.3086    0.0000 H       1  UNL1        0.0584
     42 H           3.0044   -2.3086    0.0000 H       1  UNL1        0.0584
     43 H           4.5981   -6.0936    0.0000 H       1  UNL1        0.2100
     44 H           3.4030   -5.4036    0.0000 H       1  UNL1        0.2100
     45 H           6.8671   -5.4036    0.0000 H       1  UNL1        0.2102
     46 H           2.0000   -2.9736    0.0000 H       1  UNL1        0.2095
     47 H           5.4641   -1.5936    0.0000 H       1  UNL1        0.0692
     48 H           9.1892    1.5728    0.0000 H       1  UNL1        0.1037
     49 H           4.5981   -0.0936    0.0000 H       1  UNL1        0.2922
     50 H           9.7751   -1.8205    0.0000 H       1  UNL1        0.0660
     51 H          10.0021   -0.9736    0.0000 H       1  UNL1        0.0660
     52 H           9.1551   -0.7466    0.0000 H       1  UNL1        0.0660
     53 H           9.1474    2.9811    0.0000 H       1  UNL1        0.0661
     54 H           6.3415    2.9703    0.0000 H       1  UNL1        0.0625
     55 H           6.3353    4.5902    0.0000 H       1  UNL1        0.0655
     56 H           7.1955    6.0936    0.0000 H       1  UNL1        0.2923
     57 H          10.0295    3.7576    0.0000 H       1  UNL1        0.0660
     58 H          10.8756    3.9878    0.0000 H       1  UNL1        0.0660
     59 H          10.6454    4.8338    0.0000 H       1  UNL1        0.0660
@<TRIPOS>BOND
     1     1    16    1
     2     1    17    1
     3    17     2    1
     4     2    19    1
     5    13     3    1
     6     3    43    1
     7    14     4    1
     8     4    44    1
     9     5    15    1
    10     5    45    1
    11     6    18    1
    12     6    46    1
    13     7    20    1
    14     7    29    1
    15     8    22   ar
    16     8    27   ar
    17     9    24    1
    18     9    49    1
    19    10    25    2
    20    11    32    1
    21    11    35    1
    22    12    34    1
    23    12    56    1
    24    13    14    1
    25    13    15    1
    26    13    36    1
    27    14    16    1
    28    14    37    1
    29    15    17    1
    30    15    38    1
    31    16    18    1
    32    16    39    1
    33    17    40    1
    34    18    41    1
    35    18    42    1
    36    19    20   ar
    37    19    21   ar
    38    20    22   ar
    39    21    24   ar
    40    21    47    1
    41    22    23   ar
    42    23    24   ar
    43    23    25   ar
    44    25    26   ar
    45    26    27   ar
    46    26    28    1
    47    27    48    1
    48    28    30   ar
    49    28    31   ar
    50    29    50    1
    51    29    51    1
    52    29    52    1
    53    30    32   ar
    54    30    53    1
    55    31    33   ar
    56    31    54    1
    57    32    34   ar
    58    33    34   ar
    59    33    55    1
    60    35    57    1
    61    35    58    1
    62    35    59    1
