@<TRIPOS>MOLECULE
IMPHY008802
 57 58 0 0 0
SMALL
GASTEIGER

@<TRIPOS>ATOM
      1 O           4.2690   -2.7500    0.0000 O.3     1  UNL1       -0.3405
      2 O           6.0010   -2.7500    0.0000 O.3     1  UNL1       -0.3387
      3 O           4.2690   -5.7500    0.0000 O.3     1  UNL1       -0.3864
      4 O           2.5369   -4.7500    0.0000 O.3     1  UNL1       -0.3865
      5 O           6.0010   -4.7500    0.0000 O.3     1  UNL1       -0.3841
      6 O           2.5369   -1.7500    0.0000 O.3     1  UNL1       -0.3924
      7 O           6.8671   -0.2500    0.0000 O.3     1  UNL1       -0.4588
      8 O           5.1350   -0.2500    0.0000 O.3     1  UNL1       -0.4621
      9 O           8.5991   -0.2500    0.0000 O.2     1  UNL1       -0.2456
     10 O           3.4030   -0.2500    0.0000 O.2     1  UNL1       -0.2512
     11 O           8.5991    5.7500    0.0000 O.3     1  UNL1       -0.5068
     12 C           4.2690   -4.7500    0.0000 C.3     1  UNL1        0.1141
     13 C           3.4030   -4.2500    0.0000 C.3     1  UNL1        0.1119
     14 C           5.1350   -4.2500    0.0000 C.3     1  UNL1        0.1341
     15 C           3.4030   -3.2500    0.0000 C.3     1  UNL1        0.1130
     16 C           5.1350   -3.2500    0.0000 C.3     1  UNL1        0.1885
     17 C           2.5369   -2.7500    0.0000 C.3     1  UNL1        0.0730
     18 C           6.0010   -1.7500    0.0000 C.3     1  UNL1        0.1296
     19 C           6.8671   -1.2500    0.0000 C.3     1  UNL1        0.1221
     20 C           5.1350   -1.2500    0.0000 C.3     1  UNL1        0.1218
     21 C           4.2690    0.2500    0.0000 C.2     1  UNL1        0.3040
     22 C           7.7331    0.2500    0.0000 C.2     1  UNL1        0.3320
     23 C           4.2690    1.2500    0.0000 C.3     1  UNL1        0.0332
     24 C           7.7331    1.2500    0.0000 C.2     1  UNL1        0.0231
     25 C           8.5991    1.7500    0.0000 C.2     1  UNL1       -0.0478
     26 C           8.5991    2.7500    0.0000 C.ar    1  UNL1       -0.0246
     27 C           9.4651    3.2500    0.0000 C.ar    1  UNL1       -0.0511
     28 C           7.7331    3.2500    0.0000 C.ar    1  UNL1       -0.0511
     29 C           9.4651    4.2500    0.0000 C.ar    1  UNL1       -0.0196
     30 C           7.7331    4.2500    0.0000 C.ar    1  UNL1       -0.0196
     31 C           8.5991    4.7500    0.0000 C.ar    1  UNL1        0.1169
     32 H           5.0051   -5.1750    0.0000 H       1  UNL1        0.0648
     33 H           3.4030   -5.1000    0.0000 H       1  UNL1        0.0647
     34 H           5.8711   -3.8250    0.0000 H       1  UNL1        0.0671
     35 H           3.4030   -2.4000    0.0000 H       1  UNL1        0.0647
     36 H           5.1350   -2.4000    0.0000 H       1  UNL1        0.0938
     37 H           1.9264   -2.6423    0.0000 H       1  UNL1        0.0584
     38 H           2.3249   -3.3326    0.0000 H       1  UNL1        0.0584
     39 H           6.5380   -2.0600    0.0000 H       1  UNL1        0.0665
     40 H           3.7320   -6.0600    0.0000 H       1  UNL1        0.2100
     41 H           2.0000   -4.4400    0.0000 H       1  UNL1        0.2100
     42 H           6.5380   -4.4400    0.0000 H       1  UNL1        0.2101
     43 H           7.0791   -1.8326    0.0000 H       1  UNL1        0.0725
     44 H           7.4776   -1.1423    0.0000 H       1  UNL1        0.0725
     45 H           4.5244   -1.1423    0.0000 H       1  UNL1        0.0725
     46 H           4.9230   -1.8326    0.0000 H       1  UNL1        0.0725
     47 H           2.0000   -1.4400    0.0000 H       1  UNL1        0.2095
     48 H           4.8890    1.2500    0.0000 H       1  UNL1        0.0342
     49 H           4.2690    1.8700    0.0000 H       1  UNL1        0.0342
     50 H           3.6490    1.2500    0.0000 H       1  UNL1        0.0342
     51 H           7.1962    1.5600    0.0000 H       1  UNL1        0.0689
     52 H           9.1360    1.4400    0.0000 H       1  UNL1        0.0626
     53 H          10.0021    2.9400    0.0000 H       1  UNL1        0.0625
     54 H           7.1962    2.9400    0.0000 H       1  UNL1        0.0625
     55 H          10.0021    4.5600    0.0000 H       1  UNL1        0.0654
     56 H           7.1962    4.5600    0.0000 H       1  UNL1        0.0654
     57 H           9.1360    6.0600    0.0000 H       1  UNL1        0.2921
@<TRIPOS>BOND
     1     1    15    1
     2     1    16    1
     3     2    16    1
     4    18     2    1
     5     3    12    1
     6     3    40    1
     7     4    13    1
     8     4    41    1
     9     5    14    1
    10     5    42    1
    11     6    17    1
    12     6    47    1
    13     7    19    1
    14     7    22    1
    15     8    20    1
    16     8    21    1
    17     9    22    2
    18    10    21    2
    19    11    31    1
    20    11    57    1
    21    12    13    1
    22    12    14    1
    23    12    32    1
    24    13    15    1
    25    13    33    1
    26    14    16    1
    27    14    34    1
    28    15    17    1
    29    15    35    1
    30    16    36    1
    31    17    37    1
    32    17    38    1
    33    18    19    1
    34    18    20    1
    35    18    39    1
    36    19    43    1
    37    19    44    1
    38    20    45    1
    39    20    46    1
    40    21    23    1
    41    22    24    1
    42    23    48    1
    43    23    49    1
    44    23    50    1
    45    24    25    2
    46    24    51    1
    47    25    26    1
    48    25    52    1
    49    26    27   ar
    50    26    28   ar
    51    27    29   ar
    52    27    53    1
    53    28    30   ar
    54    28    54    1
    55    29    31   ar
    56    29    55    1
    57    30    31   ar
    58    30    56    1
