@<TRIPOS>MOLECULE
IMPHY013707
 52 55 0 0 0
SMALL
GASTEIGER

@<TRIPOS>ATOM
      1 O           2.8672    0.0543    0.0000 O.3     1  UNL1       -0.4216
      2 O           2.0012    1.5543    0.0000 O.2     1  UNL1       -0.2501
      3 O           2.8623   -1.9309    0.0000 O.3     1  UNL1       -0.4911
      4 C           5.4932    1.5890    0.0000 C.3     1  UNL1       -0.0279
      5 C           4.5993    1.0543    0.0000 C.3     1  UNL1        0.0042
      6 C           5.4554    2.5800    0.0000 C.3     1  UNL1       -0.0314
      7 C           3.7332    1.5543    0.0000 C.3     1  UNL1        0.0640
      8 C           4.5841    3.0535    0.0000 C.3     1  UNL1       -0.0468
      9 C           6.3993    1.0752    0.0000 C.3     1  UNL1       -0.0451
     10 C           3.7320    2.5460    0.0000 C.3     1  UNL1       -0.0390
     11 C           4.5993    0.0543    0.0000 C.ar    1  UNL1        0.0060
     12 C           6.3993    0.0335    0.0000 C.3     1  UNL1       -0.0270
     13 C           5.4932   -0.4803    0.0000 C.ar    1  UNL1       -0.0399
     14 C           5.9275    3.4616    0.0000 C.3     1  UNL1       -0.0595
     15 C           6.4549    2.6120    0.0000 C.3     1  UNL1       -0.0595
     16 C           2.8672    1.0543    0.0000 C.2     1  UNL1        0.3162
     17 C           3.7332   -0.4457    0.0000 C.ar    1  UNL1        0.1770
     18 C           5.4554   -1.4713    0.0000 C.ar    1  UNL1       -0.0512
     19 C           3.7320   -1.4374    0.0000 C.ar    1  UNL1        0.1659
     20 C           4.5841   -1.9448    0.0000 C.ar    1  UNL1        0.0008
     21 C           4.5644   -2.9446    0.0000 C.3     1  UNL1       -0.0179
     22 C           5.4204   -3.4616    0.0000 C.3     1  UNL1       -0.0585
     23 C           3.6887   -3.4275    0.0000 C.3     1  UNL1       -0.0585
     24 C           2.0000   -1.4245    0.0000 C.3     1  UNL1        0.0790
     25 H           6.0229    1.9112    0.0000 H       1  UNL1        0.0312
     26 H           4.5945    1.6743    0.0000 H       1  UNL1        0.0361
     27 H           3.1961    1.8640    0.0000 H       1  UNL1        0.0420
     28 H           4.9722    3.5370    0.0000 H       1  UNL1        0.0271
     29 H           4.1772    3.5213    0.0000 H       1  UNL1        0.0271
     30 H           7.0101    0.9691    0.0000 H       1  UNL1        0.0271
     31 H           6.6083    1.6588    0.0000 H       1  UNL1        0.0271
     32 H           3.5145    3.1266    0.0000 H       1  UNL1        0.0273
     33 H           3.1220    2.4351    0.0000 H       1  UNL1        0.0273
     34 H           6.6083   -0.5502    0.0000 H       1  UNL1        0.0313
     35 H           7.0101    0.1396    0.0000 H       1  UNL1        0.0313
     36 H           6.4740    3.1689    0.0000 H       1  UNL1        0.0235
     37 H           6.2201    4.0081    0.0000 H       1  UNL1        0.0235
     38 H           5.3809    3.7542    0.0000 H       1  UNL1        0.0235
     39 H           6.4747    1.9923    0.0000 H       1  UNL1        0.0235
     40 H           7.0746    2.6318    0.0000 H       1  UNL1        0.0235
     41 H           6.4351    3.2316    0.0000 H       1  UNL1        0.0235
     42 H           5.9822   -1.7983    0.0000 H       1  UNL1        0.0624
     43 H           4.5522   -3.5645    0.0000 H       1  UNL1        0.0345
     44 H           5.0999   -3.9923    0.0000 H       1  UNL1        0.0235
     45 H           5.9511   -3.7821    0.0000 H       1  UNL1        0.0235
     46 H           5.7409   -2.9308    0.0000 H       1  UNL1        0.0235
     47 H           3.3893   -2.8845    0.0000 H       1  UNL1        0.0235
     48 H           3.1457   -3.7268    0.0000 H       1  UNL1        0.0235
     49 H           3.9880   -3.9704    0.0000 H       1  UNL1        0.0235
     50 H           2.3140   -0.8899    0.0000 H       1  UNL1        0.0660
     51 H           1.4654   -1.1106    0.0000 H       1  UNL1        0.0660
     52 H           1.6860   -1.9592    0.0000 H       1  UNL1        0.0660
@<TRIPOS>BOND
     1     1    16    1
     2     1    17    1
     3     2    16    2
     4     3    19    1
     5     3    24    1
     6     4     5    1
     7     4     6    1
     8     4     9    1
     9     4    25    1
    10     5     7    1
    11     5    11    1
    12     5    26    1
    13     6     8    1
    14     6    14    1
    15     6    15    1
    16     7    10    1
    17     7    16    1
    18     7    27    1
    19     8    10    1
    20     8    28    1
    21     8    29    1
    22     9    12    1
    23     9    30    1
    24     9    31    1
    25    10    32    1
    26    10    33    1
    27    11    13   ar
    28    11    17   ar
    29    12    13    1
    30    12    34    1
    31    12    35    1
    32    13    18   ar
    33    14    36    1
    34    14    37    1
    35    14    38    1
    36    15    39    1
    37    15    40    1
    38    15    41    1
    39    17    19   ar
    40    18    20   ar
    41    18    42    1
    42    19    20   ar
    43    20    21    1
    44    21    22    1
    45    21    23    1
    46    21    43    1
    47    22    44    1
    48    22    45    1
    49    22    46    1
    50    23    47    1
    51    23    48    1
    52    23    49    1
    53    24    50    1
    54    24    51    1
    55    24    52    1
