@<TRIPOS>MOLECULE
IMPHY005187
 71 76 0 0 0
SMALL
GASTEIGER

@<TRIPOS>ATOM
      1 O           3.7998   -3.1250    0.0000 O.3     1  UNL1       -0.3607
      2 O           2.9176   -3.6592    0.0000 O.3     1  UNL1       -0.3848
      3 O           2.9176    0.4100    0.0000 O.2     1  UNL1       -0.2920
      4 O           9.0542    2.8286    0.0000 O.3     1  UNL1       -0.4575
      5 O          10.3522    3.9753    0.0000 O.2     1  UNL1       -0.2453
      6 C           5.5321   -1.1246    0.0000 C.3     1  UNL1       -0.0314
      7 C           3.8000   -2.1246    0.0000 C.3     1  UNL1        0.1376
      8 C           4.6660   -0.6246    0.0000 C.3     1  UNL1       -0.0226
      9 C           3.8000   -1.1246    0.0000 C.3     1  UNL1        0.0673
     10 C           6.4421   -0.6177    0.0000 C.3     1  UNL1       -0.0322
     11 C           6.4501    0.4239    0.0000 C.3     1  UNL1       -0.0258
     12 C           4.6660   -2.6246    0.0000 C.3     1  UNL1        0.0925
     13 C           5.5321   -2.1246    0.0000 C.3     1  UNL1       -0.0203
     14 C           7.4381    0.7337    0.0000 C.3     1  UNL1       -0.0294
     15 C           4.6500    0.4170    0.0000 C.3     1  UNL1       -0.0484
     16 C           5.5480    0.9447    0.0000 C.3     1  UNL1       -0.0468
     17 C           7.4252   -0.9427    0.0000 C.3     1  UNL1       -0.0492
     18 C           8.0396   -0.1092    0.0000 C.3     1  UNL1       -0.0491
     19 C           2.9061   -2.6592    0.0000 C.3     1  UNL1        0.1060
     20 C           3.8000   -0.1246    0.0000 C.3     1  UNL1       -0.0494
     21 C           2.9061   -0.5899    0.0000 C.2     1  UNL1        0.1649
     22 C           6.4578    1.4239    0.0000 C.3     1  UNL1       -0.0590
     23 C           7.7561    1.6818    0.0000 C.3     1  UNL1       -0.0030
     24 C           2.0000   -2.1454    0.0000 C.2     1  UNL1       -0.0497
     25 C           2.0000   -1.1037    0.0000 C.2     1  UNL1       -0.0200
     26 C           8.7362    1.8805    0.0000 C.3     1  UNL1        0.1099
     27 C           7.0940    2.4312    0.0000 C.3     1  UNL1       -0.0588
     28 C           9.3983    1.1310    0.0000 C.3     1  UNL1        0.0063
     29 C          10.3783    1.3297    0.0000 C.2     1  UNL1       -0.0595
     30 C          10.0342    3.0272    0.0000 C.2     1  UNL1        0.3351
     31 C          10.6963    2.2778    0.0000 C.2     1  UNL1        0.0326
     32 C          11.0404    0.5803    0.0000 C.3     1  UNL1       -0.0429
     33 C          11.6764    2.4765    0.0000 C.3     1  UNL1       -0.0330
     34 H           6.2649   -1.5552    0.0000 H       1  UNL1        0.0307
     35 H           5.3989   -0.1939    0.0000 H       1  UNL1        0.0314
     36 H           6.5222   -1.4639    0.0000 H       1  UNL1        0.0309
     37 H           5.0911   -3.3606    0.0000 H       1  UNL1        0.0626
     38 H           5.7441   -2.7072    0.0000 H       1  UNL1        0.0294
     39 H           6.1426   -2.0169    0.0000 H       1  UNL1        0.0294
     40 H           8.2788    0.8591    0.0000 H       1  UNL1        0.0310
     41 H           4.4319    0.9974    0.0000 H       1  UNL1        0.0268
     42 H           4.0408    0.3015    0.0000 H       1  UNL1        0.0268
     43 H           5.9453    1.4207    0.0000 H       1  UNL1        0.0271
     44 H           5.1470    1.4176    0.0000 H       1  UNL1        0.0271
     45 H           7.1698   -1.5077    0.0000 H       1  UNL1        0.0268
     46 H           7.9602   -1.2561    0.0000 H       1  UNL1        0.0268
     47 H           8.4972   -0.5275    0.0000 H       1  UNL1        0.0268
     48 H           8.5036    0.3020    0.0000 H       1  UNL1        0.0268
     49 H           2.3721   -2.9744    0.0000 H       1  UNL1        0.0668
     50 H           4.4200   -0.1246    0.0000 H       1  UNL1        0.0240
     51 H           3.8000    0.4954    0.0000 H       1  UNL1        0.0240
     52 H           3.1800   -0.1246    0.0000 H       1  UNL1        0.0240
     53 H           7.0778    1.4191    0.0000 H       1  UNL1        0.0235
     54 H           6.4626    2.0438    0.0000 H       1  UNL1        0.0235
     55 H           5.8378    1.4286    0.0000 H       1  UNL1        0.0235
     56 H           7.9532    2.2696    0.0000 H       1  UNL1        0.0337
     57 H           1.4643   -2.4574    0.0000 H       1  UNL1        0.0599
     58 H           1.4643   -0.7917    0.0000 H       1  UNL1        0.0650
     59 H           9.5692    2.0493    0.0000 H       1  UNL1        0.0740
     60 H           7.5587    2.8417    0.0000 H       1  UNL1        0.0234
     61 H           6.6835    2.8959    0.0000 H       1  UNL1        0.0234
     62 H           6.6294    2.0207    0.0000 H       1  UNL1        0.0234
     63 H           2.3843   -3.9753    0.0000 H       1  UNL1        0.2103
     64 H           8.8694    0.8075    0.0000 H       1  UNL1        0.0346
     65 H           9.6251    0.5540    0.0000 H       1  UNL1        0.0346
     66 H          10.5758    0.1698    0.0000 H       1  UNL1        0.0275
     67 H          11.4509    0.1156    0.0000 H       1  UNL1        0.0275
     68 H          11.5051    0.9908    0.0000 H       1  UNL1        0.0275
     69 H          11.7995    1.8688    0.0000 H       1  UNL1        0.0280
     70 H          12.2840    2.5996    0.0000 H       1  UNL1        0.0280
     71 H          11.5532    3.0841    0.0000 H       1  UNL1        0.0280
@<TRIPOS>BOND
     1     7     1    1
     2     1    12    1
     3    19     2    1
     4     2    63    1
     5     3    21    2
     6     4    26    1
     7     4    30    1
     8     5    30    2
     9     6     8    1
    10     6    10    1
    11     6    13    1
    12     6    34    1
    13     7     9    1
    14     7    12    1
    15     7    19    1
    16     8     9    1
    17     8    15    1
    18     8    35    1
    19     9    20    1
    20     9    21    1
    21    10    11    1
    22    10    17    1
    23    10    36    1
    24    11    14    1
    25    11    16    1
    26    11    22    1
    27    12    13    1
    28    12    37    1
    29    13    38    1
    30    13    39    1
    31    14    18    1
    32    14    23    1
    33    14    40    1
    34    15    16    1
    35    15    41    1
    36    15    42    1
    37    16    43    1
    38    16    44    1
    39    17    18    1
    40    17    45    1
    41    17    46    1
    42    18    47    1
    43    18    48    1
    44    19    24    1
    45    19    49    1
    46    20    50    1
    47    20    51    1
    48    20    52    1
    49    21    25    1
    50    22    53    1
    51    22    54    1
    52    22    55    1
    53    23    26    1
    54    23    27    1
    55    23    56    1
    56    24    25    2
    57    24    57    1
    58    25    58    1
    59    26    28    1
    60    26    59    1
    61    27    60    1
    62    27    61    1
    63    27    62    1
    64    28    29    1
    65    28    64    1
    66    28    65    1
    67    29    31    2
    68    29    32    1
    69    30    31    1
    70    31    33    1
    71    32    66    1
    72    32    67    1
    73    32    68    1
    74    33    69    1
    75    33    70    1
    76    33    71    1
