@<TRIPOS>MOLECULE
IMPHY007250
 38 40 0 0 0
SMALL
GASTEIGER

@<TRIPOS>ATOM
      1 O           2.6735   -2.2093    0.0000 O.3     1  UNL1       -0.3650
      2 O           2.5977    2.2093    0.0000 O.2     1  UNL1       -0.2971
      3 C           4.7057    0.6268    0.0000 C.3     1  UNL1       -0.0262
      4 C           5.3570    1.3965    0.0000 C.3     1  UNL1       -0.0308
      5 C           3.9397    1.2696    0.0000 C.3     1  UNL1        0.0213
      6 C           4.5846    2.0447    0.0000 C.3     1  UNL1       -0.0378
      7 C           3.4397   -1.5660    0.0000 C.3     1  UNL1        0.0932
      8 C           4.8794   -0.3580    0.0000 C.3     1  UNL1       -0.0464
      9 C           2.5000   -1.2240    0.0000 C.3     1  UNL1        0.0885
     10 C           4.3794   -1.2240    0.0000 C.3     1  UNL1       -0.0213
     11 C           2.9397    1.2696    0.0000 C.2     1  UNL1        0.1368
     12 C           2.0000   -0.3580    0.0000 C.3     1  UNL1       -0.0172
     13 C           6.0014    2.1613    0.0000 C.3     1  UNL1       -0.0595
     14 C           6.1217    0.7522    0.0000 C.3     1  UNL1       -0.0595
     15 C           2.1736    0.6268    0.0000 C.3     1  UNL1        0.0085
     16 C           4.3794   -1.9080    0.0000 C.3     1  UNL1       -0.0334
     17 H           5.5263    0.4051    0.0000 H       1  UNL1        0.0313
     18 H           3.5789    2.0392    0.0000 H       1  UNL1        0.0380
     19 H           4.9825    2.5202    0.0000 H       1  UNL1        0.0277
     20 H           4.1086    2.4419    0.0000 H       1  UNL1        0.0277
     21 H           5.3049   -0.8090    0.0000 H       1  UNL1        0.0269
     22 H           5.4334   -0.0797    0.0000 H       1  UNL1        0.0269
     23 H           1.7012   -1.5146    0.0000 H       1  UNL1        0.0625
     24 H           4.4154   -1.8430    0.0000 H       1  UNL1        0.0294
     25 H           4.9827   -1.3670    0.0000 H       1  UNL1        0.0294
     26 H           1.4460   -0.0797    0.0000 H       1  UNL1        0.0295
     27 H           1.5745   -0.8090    0.0000 H       1  UNL1        0.0295
     28 H           6.4755    1.7618    0.0000 H       1  UNL1        0.0235
     29 H           6.4009    2.6354    0.0000 H       1  UNL1        0.0235
     30 H           5.5273    2.5608    0.0000 H       1  UNL1        0.0235
     31 H           5.7222    0.2781    0.0000 H       1  UNL1        0.0235
     32 H           6.5959    0.3527    0.0000 H       1  UNL1        0.0235
     33 H           6.5212    1.2263    0.0000 H       1  UNL1        0.0235
     34 H           1.9281    1.1961    0.0000 H       1  UNL1        0.0342
     35 H           1.5578    0.5548    0.0000 H       1  UNL1        0.0342
     36 H           4.1673   -2.4907    0.0000 H       1  UNL1        0.0258
     37 H           4.9620   -2.1201    0.0000 H       1  UNL1        0.0258
     38 H           4.5914   -1.3254    0.0000 H       1  UNL1        0.0258
@<TRIPOS>BOND
     1     1     7    1
     2     1     9    1
     3     2    11    2
     4     3     4    1
     5     3     5    1
     6     3     8    1
     7     3    17    1
     8     4     6    1
     9     4    13    1
    10     4    14    1
    11     5     6    1
    12     5    11    1
    13     5    18    1
    14     6    19    1
    15     6    20    1
    16     7     9    1
    17     7    10    1
    18     7    16    1
    19     8    10    1
    20     8    21    1
    21     8    22    1
    22     9    12    1
    23     9    23    1
    24    10    24    1
    25    10    25    1
    26    11    15    1
    27    12    15    1
    28    12    26    1
    29    12    27    1
    30    13    28    1
    31    13    29    1
    32    13    30    1
    33    14    31    1
    34    14    32    1
    35    14    33    1
    36    15    34    1
    37    15    35    1
    38    16    36    1
    39    16    37    1
    40    16    38    1
