@<TRIPOS>MOLECULE
IMPHY007123
 27 30 0 0 0
SMALL
GASTEIGER

@<TRIPOS>ATOM
      1 O           3.4519   -2.7745    0.0000 O.3     1  UNL1       -0.4526
      2 O           2.0000   -1.9363    0.0000 O.3     1  UNL1       -0.4525
      3 O           4.7610    2.7788    0.0000 O.2     1  UNL1       -0.4449
      4 O           6.2838   -0.1930    0.0000 O.3     1  UNL1       -0.4937
      5 N           3.6857    1.3070    0.0000 N.ar    1  UNL1       -0.2117
      6 C           4.5518   -0.1930    0.0000 C.ar    1  UNL1        0.0465
      7 C           3.6857    0.3070    0.0000 C.ar    1  UNL1        0.0820
      8 C           5.4178    0.3070    0.0000 C.ar    1  UNL1        0.1417
      9 C           5.4178    1.3070    0.0000 C.ar    1  UNL1        0.0820
     10 C           3.6698   -1.7623    0.0000 C.ar    1  UNL1        0.1670
     11 C           2.7677   -1.2414    0.0000 C.ar    1  UNL1        0.1683
     12 C           4.5678   -1.2345    0.0000 C.ar    1  UNL1       -0.0034
     13 C           2.7757   -0.1998    0.0000 C.ar    1  UNL1        0.0101
     14 C           4.5518    1.8070    0.0000 C.ar    1  UNL1        0.2311
     15 C           6.1548    1.9741    0.0000 C.ar    1  UNL1       -0.0109
     16 C           2.4220   -2.8819    0.0000 C.3     1  UNL1        0.2332
     17 C           5.7497    2.8819    0.0000 C.ar    1  UNL1        0.0952
     18 C           7.1498    0.3070    0.0000 C.3     1  UNL1        0.0788
     19 H           5.1083   -1.5383    0.0000 H       1  UNL1        0.0663
     20 H           2.2424    0.1163    0.0000 H       1  UNL1        0.0677
     21 H           1.8324   -3.0736    0.0000 H       1  UNL1        0.1166
     22 H           2.5507   -3.4884    0.0000 H       1  UNL1        0.1166
     23 H           6.7615    1.8462    0.0000 H       1  UNL1        0.0657
     24 H           6.0597    3.4188    0.0000 H       1  UNL1        0.1030
     25 H           7.4598   -0.2299    0.0000 H       1  UNL1        0.0660
     26 H           7.6868    0.6170    0.0000 H       1  UNL1        0.0660
     27 H           6.8398    0.8439    0.0000 H       1  UNL1        0.0660
@<TRIPOS>BOND
     1     1    10    1
     2     1    16    1
     3     2    11    1
     4     2    16    1
     5     3    14   ar
     6     3    17   ar
     7     4     8    1
     8     4    18    1
     9     5     7   ar
    10     5    14   ar
    11     6     7   ar
    12     6     8   ar
    13     6    12   ar
    14     7    13   ar
    15     8     9   ar
    16     9    14   ar
    17     9    15   ar
    18    10    11   ar
    19    10    12   ar
    20    11    13   ar
    21    12    19    1
    22    13    20    1
    23    15    17   ar
    24    15    23    1
    25    16    21    1
    26    16    22    1
    27    17    24    1
    28    18    25    1
    29    18    26    1
    30    18    27    1
