@<TRIPOS>MOLECULE
IMPHY012155
 41 40 0 0 0
SMALL
GASTEIGER

@<TRIPOS>ATOM
      1 O           8.9282    0.7500    0.0000 O.3     1  UNL1       -0.4646
      2 O           8.0622   -0.7500    0.0000 O.2     1  UNL1       -0.2509
      3 C           5.4641    0.7500    0.0000 C.3     1  UNL1       -0.0526
      4 C           4.5981    0.2500    0.0000 C.3     1  UNL1       -0.0531
      5 C           6.3301    0.2500    0.0000 C.3     1  UNL1       -0.0430
      6 C           3.7320    0.7500    0.0000 C.3     1  UNL1       -0.0533
      7 C          11.5263    0.2500    0.0000 C.3     1  UNL1       -0.0436
      8 C          10.6603    0.7500    0.0000 C.3     1  UNL1       -0.0162
      9 C           7.1962    0.7500    0.0000 C.3     1  UNL1        0.0449
     10 C           2.8660    0.2500    0.0000 C.3     1  UNL1       -0.0559
     11 C           9.7942    0.2500    0.0000 C.3     1  UNL1        0.0927
     12 C          12.3923    0.7500    0.0000 C.3     1  UNL1       -0.0626
     13 C          11.5263   -0.7500    0.0000 C.3     1  UNL1       -0.0626
     14 C           8.0622    0.2500    0.0000 C.2     1  UNL1        0.3071
     15 C           2.0000    0.7500    0.0000 C.3     1  UNL1       -0.0653
     16 H           5.8626    1.2250    0.0000 H       1  UNL1        0.0265
     17 H           5.0656    1.2250    0.0000 H       1  UNL1        0.0265
     18 H           4.1996   -0.2249    0.0000 H       1  UNL1        0.0265
     19 H           4.9966   -0.2249    0.0000 H       1  UNL1        0.0265
     20 H           5.9316   -0.2249    0.0000 H       1  UNL1        0.0270
     21 H           6.7287   -0.2249    0.0000 H       1  UNL1        0.0270
     22 H           4.1306    1.2250    0.0000 H       1  UNL1        0.0265
     23 H           3.3335    1.2250    0.0000 H       1  UNL1        0.0265
     24 H          12.0632   -0.0600    0.0000 H       1  UNL1        0.0297
     25 H          11.0588    1.2250    0.0000 H       1  UNL1        0.0300
     26 H          10.2617    1.2250    0.0000 H       1  UNL1        0.0300
     27 H           7.5947    1.2250    0.0000 H       1  UNL1        0.0377
     28 H           6.7976    1.2250    0.0000 H       1  UNL1        0.0377
     29 H           2.4675   -0.2249    0.0000 H       1  UNL1        0.0263
     30 H           3.2646   -0.2249    0.0000 H       1  UNL1        0.0263
     31 H           9.3957   -0.2249    0.0000 H       1  UNL1        0.0697
     32 H          10.1928   -0.2249    0.0000 H       1  UNL1        0.0697
     33 H          12.7023    0.2131    0.0000 H       1  UNL1        0.0232
     34 H          12.9292    1.0600    0.0000 H       1  UNL1        0.0232
     35 H          12.0823    1.2869    0.0000 H       1  UNL1        0.0232
     36 H          10.9063   -0.7500    0.0000 H       1  UNL1        0.0232
     37 H          11.5263   -1.3700    0.0000 H       1  UNL1        0.0232
     38 H          12.1463   -0.7500    0.0000 H       1  UNL1        0.0232
     39 H           2.3100    1.2869    0.0000 H       1  UNL1        0.0230
     40 H           1.4631    1.0600    0.0000 H       1  UNL1        0.0230
     41 H           1.6900    0.2131    0.0000 H       1  UNL1        0.0230
@<TRIPOS>BOND
     1     1    11    1
     2     1    14    1
     3     2    14    2
     4     3     4    1
     5     3     5    1
     6     3    16    1
     7     3    17    1
     8     4     6    1
     9     4    18    1
    10     4    19    1
    11     5     9    1
    12     5    20    1
    13     5    21    1
    14     6    10    1
    15     6    22    1
    16     6    23    1
    17     7     8    1
    18     7    12    1
    19     7    13    1
    20     7    24    1
    21     8    11    1
    22     8    25    1
    23     8    26    1
    24     9    14    1
    25     9    27    1
    26     9    28    1
    27    10    15    1
    28    10    29    1
    29    10    30    1
    30    11    31    1
    31    11    32    1
    32    12    33    1
    33    12    34    1
    34    12    35    1
    35    13    36    1
    36    13    37    1
    37    13    38    1
    38    15    39    1
    39    15    40    1
    40    15    41    1
