@<TRIPOS>MOLECULE
IMPHY003955
 24 24 0 0 0
SMALL
GASTEIGER

@<TRIPOS>ATOM
      1 O           2.8660   -2.2500    0.0000 O.2     1  UNL1       -0.2927
      2 C           2.8660    0.7500    0.0000 C.3     1  UNL1       -0.0198
      3 C           2.8660    1.7500    0.0000 C.3     1  UNL1       -0.0404
      4 C           2.0000    0.2500    0.0000 C.3     1  UNL1       -0.0395
      5 C           2.0000   -0.7500    0.0000 C.3     1  UNL1        0.0104
      6 C           3.7320    0.2500    0.0000 C.2     1  UNL1       -0.0774
      7 C           3.7320    2.2500    0.0000 C.3     1  UNL1       -0.0621
      8 C           2.0000    2.2500    0.0000 C.3     1  UNL1       -0.0621
      9 C           2.8660   -1.2500    0.0000 C.2     1  UNL1        0.1558
     10 C           3.7320   -0.7500    0.0000 C.2     1  UNL1       -0.0229
     11 H           3.4030    1.0600    0.0000 H       1  UNL1        0.0346
     12 H           2.8660    2.3700    0.0000 H       1  UNL1        0.0301
     13 H           1.7880    0.8326    0.0000 H       1  UNL1        0.0275
     14 H           1.3894    0.1423    0.0000 H       1  UNL1        0.0275
     15 H           1.3894   -0.6423    0.0000 H       1  UNL1        0.0345
     16 H           1.7880   -1.3326    0.0000 H       1  UNL1        0.0345
     17 H           4.2690    0.5600    0.0000 H       1  UNL1        0.0576
     18 H           4.0420    1.7131    0.0000 H       1  UNL1        0.0233
     19 H           4.2690    2.5600    0.0000 H       1  UNL1        0.0233
     20 H           3.4220    2.7869    0.0000 H       1  UNL1        0.0233
     21 H           2.3100    2.7869    0.0000 H       1  UNL1        0.0233
     22 H           1.4631    2.5600    0.0000 H       1  UNL1        0.0233
     23 H           1.6900    1.7131    0.0000 H       1  UNL1        0.0233
     24 H           4.2690   -1.0600    0.0000 H       1  UNL1        0.0649
@<TRIPOS>BOND
     1     1     9    2
     2     2     3    1
     3     2     4    1
     4     2     6    1
     5     2    11    1
     6     3     7    1
     7     3     8    1
     8     3    12    1
     9     4     5    1
    10     4    13    1
    11     4    14    1
    12     5     9    1
    13     5    15    1
    14     5    16    1
    15     6    10    2
    16     6    17    1
    17     7    18    1
    18     7    19    1
    19     7    20    1
    20     8    21    1
    21     8    22    1
    22     8    23    1
    23     9    10    1
    24    10    24    1
