@<TRIPOS>MOLECULE
IMPHY003838
 67 72 0 0 0
SMALL
GASTEIGER

@<TRIPOS>ATOM
      1 O           6.2036   -2.5113    0.0000 O.3     1  UNL1       -0.4870
      2 O           7.9998    0.3350    0.0000 O.3     1  UNL1       -0.4808
      3 O          10.6679    0.8386    0.0000 O.3     1  UNL1       -0.3875
      4 O           9.7479   -2.7065    0.0000 O.3     1  UNL1       -0.5063
      5 O           2.6200   -1.7065    0.0000 O.3     1  UNL1       -0.5063
      6 O           5.6200   -3.4386    0.0000 O.3     1  UNL1       -0.5063
      7 O           6.9180    2.4878    0.0000 O.3     1  UNL1       -0.5033
      8 O           4.9610    2.9003    0.0000 O.3     1  UNL1       -0.5033
      9 O          10.6183    3.8694    0.0000 O.3     1  UNL1       -0.5033
     10 O           2.6200   -5.1706    0.0000 O.3     1  UNL1       -0.5065
     11 O           8.8824    4.8627    0.0000 O.3     1  UNL1       -0.5033
     12 C           6.2036   -0.9018    0.0000 C.3     1  UNL1        0.0535
     13 C           5.6200   -1.7065    0.0000 C.3     1  UNL1        0.1153
     14 C           7.1498   -1.2065    0.0000 C.ar    1  UNL1        0.0473
     15 C           8.0158   -0.7065    0.0000 C.ar    1  UNL1        0.1356
     16 C           7.1498   -2.2065    0.0000 C.ar    1  UNL1        0.1318
     17 C           8.8819   -1.2065    0.0000 C.ar    1  UNL1        0.0387
     18 C           4.6200   -1.7065    0.0000 C.3     1  UNL1        0.0173
     19 C           9.7919   -0.6997    0.0000 C.3     1  UNL1        0.0092
     20 C           9.7999    0.3419    0.0000 C.3     1  UNL1        0.1004
     21 C           8.8978    0.8627    0.0000 C.3     1  UNL1        0.1513
     22 C           5.8930    0.0487    0.0000 C.ar    1  UNL1       -0.0325
     23 C           8.0158   -2.7065    0.0000 C.ar    1  UNL1        0.0224
     24 C           8.8819   -2.2065    0.0000 C.ar    1  UNL1        0.1271
     25 C           4.1200   -2.5726    0.0000 C.ar    1  UNL1        0.0391
     26 C           8.8940    1.8627    0.0000 C.ar    1  UNL1       -0.0012
     27 C           6.5608    0.7930    0.0000 C.ar    1  UNL1       -0.0126
     28 C           4.9144    0.2549    0.0000 C.ar    1  UNL1       -0.0542
     29 C           3.1200   -2.5726    0.0000 C.ar    1  UNL1        0.1271
     30 C           4.6200   -3.4386    0.0000 C.ar    1  UNL1        0.1271
     31 C           6.2501    1.7436    0.0000 C.ar    1  UNL1        0.1585
     32 C           4.6038    1.2055    0.0000 C.ar    1  UNL1       -0.0163
     33 C           9.7581    2.3661    0.0000 C.ar    1  UNL1       -0.0098
     34 C           8.0260    2.3594    0.0000 C.ar    1  UNL1       -0.0513
     35 C           5.2716    1.9498    0.0000 C.ar    1  UNL1        0.1582
     36 C           2.6200   -3.4386    0.0000 C.ar    1  UNL1        0.0218
     37 C           4.1200   -4.3046    0.0000 C.ar    1  UNL1        0.0218
     38 C           9.7542    3.3660    0.0000 C.ar    1  UNL1        0.1586
     39 C           8.0222    3.3594    0.0000 C.ar    1  UNL1       -0.0162
     40 C           3.1200   -4.3046    0.0000 C.ar    1  UNL1        0.1238
     41 C           8.8863    3.8627    0.0000 C.ar    1  UNL1        0.1582
     42 H           5.5911   -0.8056    0.0000 H       1  UNL1        0.0436
     43 H           5.3383   -2.2588    0.0000 H       1  UNL1        0.0746
     44 H           4.7277   -1.0960    0.0000 H       1  UNL1        0.0352
     45 H           4.0374   -1.4945    0.0000 H       1  UNL1        0.0352
     46 H           9.9964   -1.2850    0.0000 H       1  UNL1        0.0342
     47 H          10.4035   -0.5983    0.0000 H       1  UNL1        0.0342
     48 H           9.8011    0.9619    0.0000 H       1  UNL1        0.0637
     49 H           9.4342    1.1738    0.0000 H       1  UNL1        0.0811
     50 H           8.0158   -3.3265    0.0000 H       1  UNL1        0.0691
     51 H           7.1675    0.6652    0.0000 H       1  UNL1        0.0658
     52 H           4.5004   -0.2065    0.0000 H       1  UNL1        0.0622
     53 H          11.2036    0.5265    0.0000 H       1  UNL1        0.2100
     54 H           3.9971    1.3333    0.0000 H       1  UNL1        0.0655
     55 H          10.2962    2.0581    0.0000 H       1  UNL1        0.0659
     56 H           7.4903    2.0473    0.0000 H       1  UNL1        0.0623
     57 H           9.7479   -3.3265    0.0000 H       1  UNL1        0.2921
     58 H           2.0000   -3.4386    0.0000 H       1  UNL1        0.0691
     59 H           4.4300   -4.8415    0.0000 H       1  UNL1        0.0691
     60 H           7.4840    3.6673    0.0000 H       1  UNL1        0.0655
     61 H           2.0000   -1.7065    0.0000 H       1  UNL1        0.2921
     62 H           5.9300   -3.9755    0.0000 H       1  UNL1        0.2921
     63 H           6.7254    3.0772    0.0000 H       1  UNL1        0.2923
     64 H           4.3543    3.0281    0.0000 H       1  UNL1        0.2923
     65 H          10.6159    4.4894    0.0000 H       1  UNL1        0.2923
     66 H           2.0000   -5.1706    0.0000 H       1  UNL1        0.2921
     67 H           8.3443    5.1706    0.0000 H       1  UNL1        0.2923
@<TRIPOS>BOND
     1     1    13    1
     2     1    16    1
     3     2    15    1
     4     2    21    1
     5    20     3    1
     6     3    53    1
     7     4    24    1
     8     4    57    1
     9     5    29    1
    10     5    61    1
    11     6    30    1
    12     6    62    1
    13     7    31    1
    14     7    63    1
    15     8    35    1
    16     8    64    1
    17     9    38    1
    18     9    65    1
    19    10    40    1
    20    10    66    1
    21    11    41    1
    22    11    67    1
    23    12    13    1
    24    12    14    1
    25    12    22    1
    26    12    42    1
    27    13    18    1
    28    13    43    1
    29    14    15   ar
    30    14    16   ar
    31    15    17   ar
    32    16    23   ar
    33    17    19    1
    34    17    24   ar
    35    18    25    1
    36    18    44    1
    37    18    45    1
    38    19    20    1
    39    19    46    1
    40    19    47    1
    41    20    21    1
    42    20    48    1
    43    21    26    1
    44    21    49    1
    45    22    27   ar
    46    22    28   ar
    47    23    24   ar
    48    23    50    1
    49    25    29   ar
    50    25    30   ar
    51    26    33   ar
    52    26    34   ar
    53    27    31   ar
    54    27    51    1
    55    28    32   ar
    56    28    52    1
    57    29    36   ar
    58    30    37   ar
    59    31    35   ar
    60    32    35   ar
    61    32    54    1
    62    33    38   ar
    63    33    55    1
    64    34    39   ar
    65    34    56    1
    66    36    40   ar
    67    36    58    1
    68    37    40   ar
    69    37    59    1
    70    38    41   ar
    71    39    41   ar
    72    39    60    1
