@<TRIPOS>MOLECULE
IMPHY009207
 123 133 0 0 0
SMALL
GASTEIGER

@<TRIPOS>ATOM
      1 O          10.3737   -0.1553    0.0000 O.3     1  UNL1       -0.3281
      2 O          11.2558   -2.6968    0.0000 O.3     1  UNL1       -0.4512
      3 O          13.0260   -1.6999    0.0000 O.3     1  UNL1       -0.4500
      4 O          13.0418    0.3483    0.0000 O.3     1  UNL1       -0.4476
      5 O          11.2679    1.3725    0.0000 O.3     1  UNL1       -0.4274
      6 O           9.2650   -2.6627    0.0000 O.3     1  UNL1       -0.4584
      7 O          10.2355   -4.3771    0.0000 O.2     1  UNL1       -0.2449
      8 O          13.9093   -0.2100    0.0000 O.2     1  UNL1       -0.2449
      9 O          12.1816    1.8516    0.0000 O.2     1  UNL1       -0.2449
     10 O           9.5359    1.3658    0.0000 O.2     1  UNL1       -0.2447
     11 O          10.2650   -2.6627    0.0000 O.2     1  UNL1       -0.2449
     12 O           8.6641    2.8624    0.0000 O.3     1  UNL1       -0.4476
     13 O          10.7618   -7.0310    0.0000 O.3     1  UNL1       -0.5028
     14 O           9.7681   -7.0310    0.0000 O.3     1  UNL1       -0.5028
     15 O          13.8342   -5.2729    0.0000 O.3     1  UNL1       -0.5032
     16 O          12.8101   -7.0468    0.0000 O.3     1  UNL1       -0.5009
     17 O           7.7199   -7.0468    0.0000 O.3     1  UNL1       -0.5009
     18 O           6.6957   -5.2729    0.0000 O.3     1  UNL1       -0.5032
     19 O          17.3616   -1.2500    0.0000 O.3     1  UNL1       -0.5032
     20 O          15.5950   -4.2298    0.0000 O.3     1  UNL1       -0.5032
     21 O           8.6564    4.8624    0.0000 O.3     1  UNL1       -0.5008
     22 O          14.7893    4.3416    0.0000 O.3     1  UNL1       -0.5032
     23 O          16.5097    1.3350    0.0000 O.3     1  UNL1       -0.5032
     24 O          12.1205    4.8758    0.0000 O.3     1  UNL1       -0.5032
     25 O          17.3385   -3.2499    0.0000 O.3     1  UNL1       -0.5009
     26 O           5.2186    2.8110    0.0000 O.2     1  UNL1       -0.4178
     27 O          10.3846    5.8691    0.0000 O.3     1  UNL1       -0.5008
     28 O          16.5175    3.3349    0.0000 O.3     1  UNL1       -0.5009
     29 O           6.0163    6.4001    0.0000 O.2     1  UNL1       -0.4178
     30 O           6.9584    1.8548    0.0000 O.3     1  UNL1       -0.5009
     31 O           4.1877    7.2917    0.0000 O.3     1  UNL1       -0.5009
     32 O           7.7864    6.4176    0.0000 O.2     1  UNL1       -0.2445
     33 O           3.4870    2.7702    0.0000 O.2     1  UNL1       -0.2445
     34 O           2.5230    6.2177    0.0000 O.3     1  UNL1       -0.5032
     35 C          11.2558   -1.6968    0.0000 C.3     1  UNL1        0.1730
     36 C          12.1658   -1.1899    0.0000 C.3     1  UNL1        0.1851
     37 C          12.1739   -0.1483    0.0000 C.3     1  UNL1        0.2053
     38 C          10.3898   -1.1968    0.0000 C.3     1  UNL1        0.1371
     39 C          11.2718    0.3725    0.0000 C.3     1  UNL1        0.2465
     40 C           9.5238   -1.6968    0.0000 C.3     1  UNL1        0.1226
     41 C          10.7650   -3.5287    0.0000 C.2     1  UNL1        0.3405
     42 C          13.8978   -1.2100    0.0000 C.2     1  UNL1        0.3399
     43 C          13.0457    1.3483    0.0000 C.2     1  UNL1        0.3400
     44 C          10.4000    1.8691    0.0000 C.2     1  UNL1        0.3453
     45 C          11.2650   -4.3948    0.0000 C.ar    1  UNL1        0.0740
     46 C           9.7650   -3.5287    0.0000 C.2     1  UNL1        0.3401
     47 C          10.7650   -5.2608    0.0000 C.ar    1  UNL1        0.0458
     48 C          14.7580   -1.7200    0.0000 C.ar    1  UNL1        0.0661
     49 C           9.2650   -4.3948    0.0000 C.ar    1  UNL1        0.0740
     50 C           9.7650   -5.2608    0.0000 C.ar    1  UNL1        0.0458
     51 C          13.9136    1.8450    0.0000 C.ar    1  UNL1        0.0661
     52 C          10.3961    2.8691    0.0000 C.ar    1  UNL1        0.1085
     53 C          12.3065   -4.3787    0.0000 C.ar    1  UNL1       -0.0017
     54 C          11.2718   -6.1708    0.0000 C.ar    1  UNL1        0.1708
     55 C           9.2581   -6.1708    0.0000 C.ar    1  UNL1        0.1708
     56 C           8.2235   -4.3787    0.0000 C.ar    1  UNL1       -0.0017
     57 C          14.7464   -2.7199    0.0000 C.ar    1  UNL1       -0.0023
     58 C          15.6297   -1.2300    0.0000 C.ar    1  UNL1       -0.0023
     59 C          12.8342   -5.2767    0.0000 C.ar    1  UNL1        0.1628
     60 C           9.5282    3.3658    0.0000 C.ar    1  UNL1        0.1876
     61 C          14.7777    1.3416    0.0000 C.ar    1  UNL1       -0.0023
     62 C          13.9175    2.8450    0.0000 C.ar    1  UNL1       -0.0023
     63 C          12.3134   -6.1788    0.0000 C.ar    1  UNL1        0.2012
     64 C          11.2602    3.3724    0.0000 C.ar    1  UNL1        0.0013
     65 C           8.2165   -6.1788    0.0000 C.ar    1  UNL1        0.2012
     66 C           7.6957   -5.2767    0.0000 C.ar    1  UNL1        0.1628
     67 C          16.4899   -1.7400    0.0000 C.ar    1  UNL1        0.1628
     68 C          15.6066   -3.2299    0.0000 C.ar    1  UNL1        0.1628
     69 C           9.5243    4.3658    0.0000 C.ar    1  UNL1        0.2060
     70 C          14.7854    3.3416    0.0000 C.ar    1  UNL1        0.1628
     71 C          15.6456    1.8383    0.0000 C.ar    1  UNL1        0.1628
     72 C          11.2564    4.3724    0.0000 C.ar    1  UNL1        0.1630
     73 C          16.4783   -2.7399    0.0000 C.ar    1  UNL1        0.2006
     74 C          10.3884    4.8691    0.0000 C.ar    1  UNL1        0.2044
     75 C          15.6495    2.8383    0.0000 C.ar    1  UNL1        0.2006
     76 C           7.7962    3.3591    0.0000 C.ar    1  UNL1        0.1743
     77 C           6.0491    4.3310    0.0000 C.ar    1  UNL1        0.0468
     78 C           5.1715    4.8105    0.0000 C.ar    1  UNL1        0.0468
     79 C           6.9469    4.8591    0.0000 C.ar    1  UNL1        0.0745
     80 C           6.0726    3.3313    0.0000 C.ar    1  UNL1        0.1854
     81 C           6.9423    2.8547    0.0000 C.ar    1  UNL1        0.2031
     82 C           7.7984    4.3508    0.0000 C.ar    1  UNL1       -0.0009
     83 C           4.3175    4.2902    0.0000 C.ar    1  UNL1        0.0744
     84 C           5.1310    5.8513    0.0000 C.ar    1  UNL1        0.1854
     85 C           6.9304    5.9006    0.0000 C.ar    1  UNL1        0.3454
     86 C           4.3411    3.2905    0.0000 C.ar    1  UNL1        0.3454
     87 C           4.2432    6.2933    0.0000 C.ar    1  UNL1        0.2022
     88 C           3.4466    4.7646    0.0000 C.ar    1  UNL1       -0.0017
     89 C           3.4099    5.7556    0.0000 C.ar    1  UNL1        0.1628
     90 H          11.9887   -2.1274    0.0000 H       1  UNL1        0.0801
     91 H          12.1575   -1.8099    0.0000 H       1  UNL1        0.0813
     92 H           9.6504   -0.7775    0.0000 H       1  UNL1        0.0670
     93 H          12.7090   -0.4614    0.0000 H       1  UNL1        0.0837
     94 H          11.8081    0.6835    0.0000 H       1  UNL1        0.1098
     95 H           9.3633   -1.0979    0.0000 H       1  UNL1        0.0725
     96 H           8.9038   -1.6968    0.0000 H       1  UNL1        0.0725
     97 H          12.6102   -3.8382    0.0000 H       1  UNL1        0.0664
     98 H           7.9197   -3.8382    0.0000 H       1  UNL1        0.0664
     99 H          14.2059   -3.0236    0.0000 H       1  UNL1        0.0663
    100 H          15.6369   -0.6100    0.0000 H       1  UNL1        0.0663
    101 H          14.7753    0.7216    0.0000 H       1  UNL1        0.0663
    102 H          13.3817    3.1570    0.0000 H       1  UNL1        0.0663
    103 H          11.7983    3.0645    0.0000 H       1  UNL1        0.0665
    104 H          11.0656   -7.5715    0.0000 H       1  UNL1        0.2923
    105 H           9.4643   -7.5715    0.0000 H       1  UNL1        0.2923
    106 H          14.1421   -4.7348    0.0000 H       1  UNL1        0.2923
    107 H          13.4301   -7.0492    0.0000 H       1  UNL1        0.2924
    108 H           8.3380    4.6563    0.0000 H       1  UNL1        0.0664
    109 H           7.0999   -7.0492    0.0000 H       1  UNL1        0.2924
    110 H           6.3878   -4.7348    0.0000 H       1  UNL1        0.2923
    111 H          17.8950   -1.5662    0.0000 H       1  UNL1        0.2923
    112 H          16.1283   -4.5460    0.0000 H       1  UNL1        0.2923
    113 H           8.6540    5.4824    0.0000 H       1  UNL1        0.2924
    114 H          15.3274    4.6495    0.0000 H       1  UNL1        0.2923
    115 H          17.0479    1.6429    0.0000 H       1  UNL1        0.2923
    116 H          12.1181    5.4958    0.0000 H       1  UNL1        0.2923
    117 H          17.8790   -2.9461    0.0000 H       1  UNL1        0.2924
    118 H           2.9196    4.4382    0.0000 H       1  UNL1        0.0664
    119 H          10.9203    6.1812    0.0000 H       1  UNL1        0.2924
    120 H          16.5198    3.9549    0.0000 H       1  UNL1        0.2924
    121 H           6.4266    1.5362    0.0000 H       1  UNL1        0.2924
    122 H           3.6344    7.5715    0.0000 H       1  UNL1        0.2924
    123 H           2.0000    5.8848    0.0000 H       1  UNL1        0.2923
@<TRIPOS>BOND
     1     1    38    1
     2     1    39    1
     3     2    35    1
     4     2    41    1
     5    36     3    1
     6     3    42    1
     7    37     4    1
     8     4    43    1
     9    39     5    1
    10     5    44    1
    11     6    40    1
    12     6    46    1
    13     7    41    2
    14     8    42    2
    15     9    43    2
    16    10    44    2
    17    11    46    2
    18    12    60    1
    19    12    76    1
    20    13    54    1
    21    13   104    1
    22    14    55    1
    23    14   105    1
    24    15    59    1
    25    15   106    1
    26    16    63    1
    27    16   107    1
    28    17    65    1
    29    17   109    1
    30    18    66    1
    31    18   110    1
    32    19    67    1
    33    19   111    1
    34    20    68    1
    35    20   112    1
    36    21    69    1
    37    21   113    1
    38    22    70    1
    39    22   114    1
    40    23    71    1
    41    23   115    1
    42    24    72    1
    43    24   116    1
    44    25    73    1
    45    25   117    1
    46    26    80   ar
    47    26    86   ar
    48    27    74    1
    49    27   119    1
    50    28    75    1
    51    28   120    1
    52    29    84   ar
    53    29    85   ar
    54    30    81    1
    55    30   121    1
    56    31    87    1
    57    31   122    1
    58    32    85    2
    59    33    86    2
    60    34    89    1
    61    34   123    1
    62    35    36    1
    63    35    38    1
    64    35    90    1
    65    36    37    1
    66    36    91    1
    67    37    39    1
    68    37    93    1
    69    38    40    1
    70    38    92    1
    71    39    94    1
    72    40    95    1
    73    40    96    1
    74    41    45    1
    75    42    48    1
    76    43    51    1
    77    44    52    1
    78    45    47   ar
    79    45    53   ar
    80    46    49    1
    81    47    50    1
    82    47    54   ar
    83    48    57   ar
    84    48    58   ar
    85    49    50   ar
    86    49    56   ar
    87    50    55   ar
    88    51    61   ar
    89    51    62   ar
    90    52    60   ar
    91    52    64   ar
    92    53    59   ar
    93    53    97    1
    94    54    63   ar
    95    55    65   ar
    96    56    66   ar
    97    56    98    1
    98    57    68   ar
    99    57    99    1
   100    58    67   ar
   101    58   100    1
   102    59    63   ar
   103    60    69   ar
   104    61    71   ar
   105    61   101    1
   106    62    70   ar
   107    62   102    1
   108    64    72   ar
   109    64   103    1
   110    65    66   ar
   111    67    73   ar
   112    68    73   ar
   113    69    74   ar
   114    70    75   ar
   115    71    75   ar
   116    72    74   ar
   117    76    81   ar
   118    76    82   ar
   119    77    78   ar
   120    77    79   ar
   121    77    80   ar
   122    78    83   ar
   123    78    84   ar
   124    79    82   ar
   125    79    85   ar
   126    80    81   ar
   127    82   108    1
   128    83    86   ar
   129    83    88   ar
   130    84    87   ar
   131    87    89   ar
   132    88    89   ar
   133    88   118    1
