@<TRIPOS>MOLECULE
IMPHY006567
 51 50 0 0 0
SMALL
GASTEIGER

@<TRIPOS>ATOM
      1 O           3.4030   -1.0600    0.0000 O.2     1  UNL1       -0.2760
      2 N           2.5369    0.4400    0.0000 N.am    1  UNL1       -0.3293
      3 C          10.3312   -0.0600    0.0000 C.3     1  UNL1       -0.0531
      4 C           9.4651    0.4400    0.0000 C.3     1  UNL1       -0.0531
      5 C          11.1972    0.4400    0.0000 C.3     1  UNL1       -0.0531
      6 C           8.5991   -0.0600    0.0000 C.3     1  UNL1       -0.0531
      7 C          12.0632   -0.0600    0.0000 C.3     1  UNL1       -0.0531
      8 C           7.7331    0.4400    0.0000 C.3     1  UNL1       -0.0531
      9 C          12.9292    0.4400    0.0000 C.3     1  UNL1       -0.0531
     10 C           6.8671   -0.0600    0.0000 C.3     1  UNL1       -0.0530
     11 C          13.7953   -0.0600    0.0000 C.3     1  UNL1       -0.0531
     12 C           6.0010    0.4400    0.0000 C.3     1  UNL1       -0.0526
     13 C          14.6613    0.4400    0.0000 C.3     1  UNL1       -0.0533
     14 C           5.1350   -0.0600    0.0000 C.3     1  UNL1       -0.0448
     15 C          15.5273   -0.0600    0.0000 C.3     1  UNL1       -0.0559
     16 C           4.2690    0.4400    0.0000 C.3     1  UNL1        0.0237
     17 C          16.3933    0.4400    0.0000 C.3     1  UNL1       -0.0653
     18 C           3.4030   -0.0600    0.0000 C.2     1  UNL1        0.2105
     19 H           9.9326   -0.5349    0.0000 H       1  UNL1        0.0265
     20 H          10.7297   -0.5349    0.0000 H       1  UNL1        0.0265
     21 H           9.8637    0.9149    0.0000 H       1  UNL1        0.0265
     22 H           9.0666    0.9149    0.0000 H       1  UNL1        0.0265
     23 H          11.5957    0.9149    0.0000 H       1  UNL1        0.0265
     24 H          10.7987    0.9149    0.0000 H       1  UNL1        0.0265
     25 H           8.2006   -0.5349    0.0000 H       1  UNL1        0.0265
     26 H           8.9976   -0.5349    0.0000 H       1  UNL1        0.0265
     27 H          11.6647   -0.5349    0.0000 H       1  UNL1        0.0265
     28 H          12.4617   -0.5349    0.0000 H       1  UNL1        0.0265
     29 H           8.1316    0.9149    0.0000 H       1  UNL1        0.0265
     30 H           7.3346    0.9149    0.0000 H       1  UNL1        0.0265
     31 H          13.3278    0.9149    0.0000 H       1  UNL1        0.0265
     32 H          12.5307    0.9149    0.0000 H       1  UNL1        0.0265
     33 H           6.4685   -0.5349    0.0000 H       1  UNL1        0.0265
     34 H           7.2656   -0.5349    0.0000 H       1  UNL1        0.0265
     35 H          13.3967   -0.5349    0.0000 H       1  UNL1        0.0265
     36 H          14.1938   -0.5349    0.0000 H       1  UNL1        0.0265
     37 H           6.3996    0.9149    0.0000 H       1  UNL1        0.0265
     38 H           5.6025    0.9149    0.0000 H       1  UNL1        0.0265
     39 H          15.0598    0.9149    0.0000 H       1  UNL1        0.0265
     40 H          14.2628    0.9149    0.0000 H       1  UNL1        0.0265
     41 H           4.7365   -0.5349    0.0000 H       1  UNL1        0.0270
     42 H           5.5335   -0.5349    0.0000 H       1  UNL1        0.0270
     43 H          15.1288   -0.5349    0.0000 H       1  UNL1        0.0263
     44 H          15.9258   -0.5349    0.0000 H       1  UNL1        0.0263
     45 H           4.6675    0.9149    0.0000 H       1  UNL1        0.0358
     46 H           3.8705    0.9149    0.0000 H       1  UNL1        0.0358
     47 H          16.7033   -0.0969    0.0000 H       1  UNL1        0.0230
     48 H          16.9303    0.7500    0.0000 H       1  UNL1        0.0230
     49 H          16.0833    0.9769    0.0000 H       1  UNL1        0.0230
     50 H           2.0000    0.1300    0.0000 H       1  UNL1        0.1449
     51 H           2.5369    1.0600    0.0000 H       1  UNL1        0.1449
@<TRIPOS>BOND
     1     1    18    2
     2     2    18   am
     3     2    50    1
     4     2    51    1
     5     3     4    1
     6     3     5    1
     7     3    19    1
     8     3    20    1
     9     4     6    1
    10     4    21    1
    11     4    22    1
    12     5     7    1
    13     5    23    1
    14     5    24    1
    15     6     8    1
    16     6    25    1
    17     6    26    1
    18     7     9    1
    19     7    27    1
    20     7    28    1
    21     8    10    1
    22     8    29    1
    23     8    30    1
    24     9    11    1
    25     9    31    1
    26     9    32    1
    27    10    12    1
    28    10    33    1
    29    10    34    1
    30    11    13    1
    31    11    35    1
    32    11    36    1
    33    12    14    1
    34    12    37    1
    35    12    38    1
    36    13    15    1
    37    13    39    1
    38    13    40    1
    39    14    16    1
    40    14    41    1
    41    14    42    1
    42    15    17    1
    43    15    43    1
    44    15    44    1
    45    16    18    1
    46    16    45    1
    47    16    46    1
    48    17    47    1
    49    17    48    1
    50    17    49    1
