@<TRIPOS>MOLECULE
IMPHY007860
 33 35 0 0 0
SMALL
GASTEIGER

@<TRIPOS>ATOM
      1 O           6.4144    1.7623    0.0000 O.3     1  UNL1       -0.4939
      2 O           8.1962   -1.2964    0.0000 O.3     1  UNL1       -0.5063
      3 O           4.6660    1.7277    0.0000 O.2     1  UNL1       -0.2865
      4 O           4.6660   -2.2723    0.0000 O.2     1  UNL1       -0.2866
      5 O           9.0641    0.2552    0.0000 O.3     1  UNL1       -0.3902
      6 C           5.5321    0.2277    0.0000 C.ar    1  UNL1        0.0752
      7 C           5.5321   -0.7723    0.0000 C.ar    1  UNL1        0.0401
      8 C           6.4260    0.7624    0.0000 C.ar    1  UNL1        0.1404
      9 C           3.8000    0.2277    0.0000 C.ar    1  UNL1        0.0332
     10 C           3.8000   -0.7723    0.0000 C.ar    1  UNL1        0.0331
     11 C           7.3321    0.2485    0.0000 C.ar    1  UNL1        0.0614
     12 C           4.6660    0.7277    0.0000 C.2     1  UNL1        0.1980
     13 C           4.6660   -1.2723    0.0000 C.2     1  UNL1        0.1947
     14 C           6.4260   -1.3070    0.0000 C.ar    1  UNL1       -0.0081
     15 C           7.3321   -0.7931    0.0000 C.ar    1  UNL1        0.1264
     16 C           8.1962    0.7519    0.0000 C.3     1  UNL1        0.0762
     17 C           2.9061    0.7624    0.0000 C.ar    1  UNL1       -0.0502
     18 C           2.9061   -1.3070    0.0000 C.ar    1  UNL1       -0.0502
     19 C           2.0000    0.2485    0.0000 C.ar    1  UNL1       -0.0610
     20 C           2.0000   -0.7931    0.0000 C.ar    1  UNL1       -0.0610
     21 C           7.2746    2.2723    0.0000 C.3     1  UNL1        0.0788
     22 H           6.4188   -1.9269    0.0000 H       1  UNL1        0.0661
     23 H           8.5929    1.2283    0.0000 H       1  UNL1        0.0609
     24 H           7.7958    1.2253    0.0000 H       1  UNL1        0.0609
     25 H           2.9132    1.3823    0.0000 H       1  UNL1        0.0625
     26 H           2.9132   -1.9269    0.0000 H       1  UNL1        0.0625
     27 H           1.4643    0.5606    0.0000 H       1  UNL1        0.0618
     28 H           1.4643   -1.1052    0.0000 H       1  UNL1        0.0618
     29 H           8.1938   -1.9164    0.0000 H       1  UNL1        0.2921
     30 H           7.5908    1.7390    0.0000 H       1  UNL1        0.0660
     31 H           7.8079    2.5885    0.0000 H       1  UNL1        0.0660
     32 H           6.9584    2.8056    0.0000 H       1  UNL1        0.0660
     33 H           9.5998    0.5673    0.0000 H       1  UNL1        0.2099
@<TRIPOS>BOND
     1     1     8    1
     2     1    21    1
     3     2    15    1
     4     2    29    1
     5     3    12    2
     6     4    13    2
     7     5    16    1
     8     5    33    1
     9     6     7   ar
    10     6     8   ar
    11     6    12    1
    12     7    13    1
    13     7    14   ar
    14     8    11   ar
    15     9    10   ar
    16     9    12    1
    17     9    17   ar
    18    10    13    1
    19    10    18   ar
    20    11    15   ar
    21    11    16    1
    22    14    15   ar
    23    14    22    1
    24    16    23    1
    25    16    24    1
    26    17    19   ar
    27    17    25    1
    28    18    20   ar
    29    18    26    1
    30    19    20   ar
    31    19    27    1
    32    20    28    1
    33    21    30    1
    34    21    31    1
    35    21    32    1
