@<TRIPOS>MOLECULE
IMPHY004999
 75 79 0 0 0
SMALL
GASTEIGER

@<TRIPOS>ATOM
      1 O           8.6346    4.7786    0.0000 O.3     1  UNL1       -0.3609
      2 O           5.1350   -4.2839    0.0000 O.3     1  UNL1       -0.3313
      3 O           6.0346    4.2886    0.0000 O.3     1  UNL1       -0.3862
      4 O           6.0423    6.2886    0.0000 O.3     1  UNL1       -0.3865
      5 O           7.7782    7.2819    0.0000 O.3     1  UNL1       -0.3865
      6 O           6.8671   -4.2839    0.0000 O.3     1  UNL1       -0.4608
      7 O           3.4030   -6.2839    0.0000 O.3     1  UNL1       -0.3865
      8 O           5.1350   -7.2839    0.0000 O.3     1  UNL1       -0.3864
      9 O           6.8671   -6.2839    0.0000 O.3     1  UNL1       -0.3829
     10 O           9.5102    7.2752    0.0000 O.3     1  UNL1       -0.3924
     11 O           9.4948    3.2752    0.0000 O.3     1  UNL1       -0.4945
     12 O           6.0308    3.2886    0.0000 O.3     1  UNL1       -0.5054
     13 O           7.7671    0.2404    0.0000 O.2     1  UNL1       -0.4544
     14 O           2.5369   -4.7839    0.0000 O.3     1  UNL1       -0.3924
     15 O           5.1208    1.7952    0.0000 O.2     1  UNL1       -0.2869
     16 C           6.9026    4.7852    0.0000 C.3     1  UNL1        0.1139
     17 C           6.9064    5.7852    0.0000 C.3     1  UNL1        0.1121
     18 C           7.7666    4.2819    0.0000 C.3     1  UNL1        0.1193
     19 C           7.7744    6.2819    0.0000 C.3     1  UNL1        0.1117
     20 C           8.6384    5.7785    0.0000 C.3     1  UNL1        0.1108
     21 C           7.7628    3.2819    0.0000 C.ar    1  UNL1        0.0676
     22 C           4.2690   -5.7839    0.0000 C.3     1  UNL1        0.1120
     23 C           5.1350   -6.2839    0.0000 C.3     1  UNL1        0.1152
     24 C           4.2690   -4.7839    0.0000 C.3     1  UNL1        0.1140
     25 C           6.0010   -5.7839    0.0000 C.3     1  UNL1        0.1454
     26 C           9.5064    6.2752    0.0000 C.3     1  UNL1        0.0729
     27 C           6.0010   -4.7839    0.0000 C.3     1  UNL1        0.2308
     28 C           6.8948    2.7852    0.0000 C.ar    1  UNL1        0.1404
     29 C           8.6269    2.7786    0.0000 C.ar    1  UNL1        0.1328
     30 C           3.4030   -4.2839    0.0000 C.3     1  UNL1        0.0731
     31 C           6.8910    1.7852    0.0000 C.ar    1  UNL1        0.1058
     32 C           8.6230    1.7786    0.0000 C.ar    1  UNL1        0.0237
     33 C           7.7551    1.2819    0.0000 C.ar    1  UNL1        0.1463
     34 C           5.9790    1.2819    0.0000 C.ar    1  UNL1        0.1966
     35 C           6.8671   -3.2839    0.0000 C.ar    1  UNL1        0.1240
     36 C           6.8671   -0.2839    0.0000 C.ar    1  UNL1        0.1392
     37 C           5.9670    0.2404    0.0000 C.ar    1  UNL1        0.0288
     38 C           6.8671   -1.2839    0.0000 C.ar    1  UNL1        0.0176
     39 C           7.7331   -2.7839    0.0000 C.ar    1  UNL1       -0.0192
     40 C           6.0010   -2.7839    0.0000 C.ar    1  UNL1       -0.0192
     41 C           7.7331   -1.7839    0.0000 C.ar    1  UNL1       -0.0476
     42 C           6.0010   -1.7839    0.0000 C.ar    1  UNL1       -0.0476
     43 C          10.3589    2.7719    0.0000 C.3     1  UNL1        0.0788
     44 H           6.3668    5.0973    0.0000 H       1  UNL1        0.0649
     45 H           6.9088    6.4052    0.0000 H       1  UNL1        0.0647
     46 H           8.5011    3.8541    0.0000 H       1  UNL1        0.0676
     47 H           8.3125    6.5898    0.0000 H       1  UNL1        0.0647
     48 H           9.1742    5.4665    0.0000 H       1  UNL1        0.0646
     49 H           4.2690   -6.4039    0.0000 H       1  UNL1        0.0647
     50 H           5.6720   -6.5939    0.0000 H       1  UNL1        0.0648
     51 H           4.2690   -4.1639    0.0000 H       1  UNL1        0.0647
     52 H           6.5380   -5.4739    0.0000 H       1  UNL1        0.0683
     53 H           9.7162    5.6918    0.0000 H       1  UNL1        0.0584
     54 H          10.1174    6.3805    0.0000 H       1  UNL1        0.0584
     55 H           6.0010   -4.1639    0.0000 H       1  UNL1        0.1084
     56 H           5.4989    4.6006    0.0000 H       1  UNL1        0.2100
     57 H           6.0447    6.9086    0.0000 H       1  UNL1        0.2100
     58 H           7.2425    7.5939    0.0000 H       1  UNL1        0.2100
     59 H           3.8015   -3.8090    0.0000 H       1  UNL1        0.0584
     60 H           3.0044   -3.8090    0.0000 H       1  UNL1        0.0584
     61 H           9.1588    1.4665    0.0000 H       1  UNL1        0.0691
     62 H           3.4030   -6.9039    0.0000 H       1  UNL1        0.2100
     63 H           5.6720   -7.5939    0.0000 H       1  UNL1        0.2100
     64 H           7.4040   -5.9739    0.0000 H       1  UNL1        0.2102
     65 H          10.0484    7.5831    0.0000 H       1  UNL1        0.2095
     66 H           5.4926    2.9806    0.0000 H       1  UNL1        0.2922
     67 H           2.0000   -4.4739    0.0000 H       1  UNL1        0.2095
     68 H           5.4277   -0.0655    0.0000 H       1  UNL1        0.0693
     69 H           8.2700   -3.0939    0.0000 H       1  UNL1        0.0654
     70 H           5.4641   -3.0939    0.0000 H       1  UNL1        0.0654
     71 H           8.2700   -1.4739    0.0000 H       1  UNL1        0.0626
     72 H           5.4641   -1.4739    0.0000 H       1  UNL1        0.0626
     73 H          10.0469    2.2362    0.0000 H       1  UNL1        0.0660
     74 H          10.8947    2.4598    0.0000 H       1  UNL1        0.0660
     75 H          10.6710    3.3076    0.0000 H       1  UNL1        0.0660
@<TRIPOS>BOND
     1     1    18    1
     2     1    20    1
     3     2    24    1
     4     2    27    1
     5    16     3    1
     6     3    56    1
     7    17     4    1
     8     4    57    1
     9    19     5    1
    10     5    58    1
    11    27     6    1
    12     6    35    1
    13    22     7    1
    14     7    62    1
    15    23     8    1
    16     8    63    1
    17    25     9    1
    18     9    64    1
    19    10    26    1
    20    10    65    1
    21    11    29    1
    22    11    43    1
    23    12    28    1
    24    12    66    1
    25    13    33   ar
    26    13    36   ar
    27    14    30    1
    28    14    67    1
    29    15    34    2
    30    16    17    1
    31    16    18    1
    32    16    44    1
    33    17    19    1
    34    17    45    1
    35    18    21    1
    36    18    46    1
    37    19    20    1
    38    19    47    1
    39    20    26    1
    40    20    48    1
    41    21    28   ar
    42    21    29   ar
    43    22    23    1
    44    22    24    1
    45    22    49    1
    46    23    25    1
    47    23    50    1
    48    24    30    1
    49    24    51    1
    50    25    27    1
    51    25    52    1
    52    26    53    1
    53    26    54    1
    54    27    55    1
    55    28    31   ar
    56    29    32   ar
    57    30    59    1
    58    30    60    1
    59    31    33   ar
    60    31    34   ar
    61    32    33   ar
    62    32    61    1
    63    34    37   ar
    64    35    39   ar
    65    35    40   ar
    66    36    37   ar
    67    36    38    1
    68    37    68    1
    69    38    41   ar
    70    38    42   ar
    71    39    41   ar
    72    39    69    1
    73    40    42   ar
    74    40    70    1
    75    41    71    1
    76    42    72    1
    77    43    73    1
    78    43    74    1
    79    43    75    1
