@<TRIPOS>MOLECULE
IMPHY004685
 81 85 0 0 0
SMALL
GASTEIGER

@<TRIPOS>ATOM
      1 O           7.3494    0.9405    0.0000 O.3     1  UNL1       -0.3585
      2 O           7.9771   -1.9063    0.0000 O.3     1  UNL1       -0.4581
      3 O           5.3307    1.6441    0.0000 O.3     1  UNL1       -0.3888
      4 O           7.0628    2.6441    0.0000 O.3     1  UNL1       -0.3858
      5 O           9.6906    0.1796    0.0000 O.3     1  UNL1       -0.4464
      6 O           9.4288    2.0101    0.0000 O.3     1  UNL1       -0.4659
      7 O           7.9288    2.8761    0.0000 O.2     1  UNL1       -0.2475
      8 O           9.7386   -1.8589    0.0000 O.2     1  UNL1       -0.2466
      9 O           2.5357   -1.9082    0.0000 O.2     1  UNL1       -0.5034
     10 O           2.5519    0.1834    0.0000 O.2     1  UNL1       -0.2888
     11 O          10.5974   -1.2961    0.0000 O.2     1  UNL1       -0.2456
     12 O          14.0054    0.7981    0.0000 O.3     1  UNL1       -0.4544
     13 O          14.9122   -0.6777    0.0000 O.2     1  UNL1       -0.2511
     14 C           7.0628   -0.3559    0.0000 C.3     1  UNL1        0.0468
     15 C           6.1968    0.1441    0.0000 C.3     1  UNL1        0.0055
     16 C           7.9288    0.1441    0.0000 C.3     1  UNL1        0.0603
     17 C           5.2868   -0.3628    0.0000 C.3     1  UNL1       -0.0123
     18 C           7.9288    1.1441    0.0000 C.3     1  UNL1        0.2007
     19 C           7.0789   -1.3974    0.0000 C.3     1  UNL1        0.1123
     20 C           6.1968    1.1441    0.0000 C.3     1  UNL1        0.0884
     21 C           5.2787   -1.4044    0.0000 C.3     1  UNL1       -0.0068
     22 C           6.9494    0.2477    0.0000 C.3     1  UNL1        0.0591
     23 C           7.0628    1.6441    0.0000 C.3     1  UNL1        0.1210
     24 C           6.1808   -1.9252    0.0000 C.3     1  UNL1       -0.0079
     25 C           8.8386   -0.3439    0.0000 C.3     1  UNL1        0.2059
     26 C           4.3599    0.2013    0.0000 C.3     1  UNL1        0.0198
     27 C           4.9520    0.5795    0.0000 C.3     1  UNL1       -0.0583
     28 C           4.3433   -1.9541    0.0000 C.2     1  UNL1       -0.0240
     29 C           8.4288    2.0101    0.0000 C.2     1  UNL1        0.3423
     30 C           8.8629   -1.3760    0.0000 C.2     1  UNL1        0.3491
     31 C           3.4120   -0.3266    0.0000 C.2     1  UNL1        0.1976
     32 C           3.4037   -1.4116    0.0000 C.2     1  UNL1        0.1584
     33 C           4.3472   -2.9541    0.0000 C.3     1  UNL1       -0.0397
     34 C          10.5700   -0.2965    0.0000 C.2     1  UNL1        0.3328
     35 C           9.9288    2.8761    0.0000 C.3     1  UNL1        0.0818
     36 C          11.4220    0.2271    0.0000 C.2     1  UNL1        0.0252
     37 C          12.3014   -0.2490    0.0000 C.2     1  UNL1       -0.0234
     38 C          13.1534    0.2745    0.0000 C.3     1  UNL1        0.1292
     39 C          12.3288   -1.2486    0.0000 C.3     1  UNL1       -0.0396
     40 C          13.6769   -0.5775    0.0000 C.3     1  UNL1       -0.0211
     41 C          12.6299    1.1265    0.0000 C.3     1  UNL1       -0.0211
     42 C          14.8848    0.3220    0.0000 C.2     1  UNL1        0.3048
     43 C          15.7368    0.8455    0.0000 C.3     1  UNL1        0.0333
     44 H           5.4606    0.5691    0.0000 H       1  UNL1        0.0339
     45 H           8.3538   -0.5920    0.0000 H       1  UNL1        0.0384
     46 H           7.0856   -2.2474    0.0000 H       1  UNL1        0.0740
     47 H           6.1968    1.7641    0.0000 H       1  UNL1        0.0623
     48 H           5.2820   -2.2544    0.0000 H       1  UNL1        0.0353
     49 H           6.5222    0.6971    0.0000 H       1  UNL1        0.0567
     50 H           6.3974   -0.0347    0.0000 H       1  UNL1        0.0567
     51 H           7.5997    1.9541    0.0000 H       1  UNL1        0.0654
     52 H           5.7835   -2.4012    0.0000 H       1  UNL1        0.0307
     53 H           6.5818   -2.3981    0.0000 H       1  UNL1        0.0307
     54 H           9.3833   -0.6402    0.0000 H       1  UNL1        0.0857
     55 H           4.7681    0.6680    0.0000 H       1  UNL1        0.0352
     56 H           3.9700    0.6834    0.0000 H       1  UNL1        0.0352
     57 H           5.5362    0.7871    0.0000 H       1  UNL1        0.0235
     58 H           4.7444    1.1638    0.0000 H       1  UNL1        0.0235
     59 H           4.3678    0.3720    0.0000 H       1  UNL1        0.0235
     60 H           5.3307    2.2641    0.0000 H       1  UNL1        0.2099
     61 H           6.5259    2.9541    0.0000 H       1  UNL1        0.2100
     62 H           3.7272   -2.9565    0.0000 H       1  UNL1        0.0276
     63 H           4.3496   -3.5741    0.0000 H       1  UNL1        0.0276
     64 H           4.9672   -2.9517    0.0000 H       1  UNL1        0.0276
     65 H           2.0000   -1.5962    0.0000 H       1  UNL1        0.2923
     66 H          10.4658    2.5661    0.0000 H       1  UNL1        0.0661
     67 H          10.2388    3.4131    0.0000 H       1  UNL1        0.0661
     68 H           9.3919    3.1861    0.0000 H       1  UNL1        0.0661
     69 H          11.4050    0.8468    0.0000 H       1  UNL1        0.0689
     70 H          11.7090   -1.2656    0.0000 H       1  UNL1        0.0276
     71 H          12.3458   -1.8684    0.0000 H       1  UNL1        0.0276
     72 H          12.9486   -1.2317    0.0000 H       1  UNL1        0.0276
     73 H          13.1487   -0.9021    0.0000 H       1  UNL1        0.0271
     74 H          14.0015   -1.1057    0.0000 H       1  UNL1        0.0271
     75 H          14.2052   -0.2529    0.0000 H       1  UNL1        0.0271
     76 H          13.1581    1.4511    0.0000 H       1  UNL1        0.0271
     77 H          12.3053    1.6548    0.0000 H       1  UNL1        0.0271
     78 H          12.1016    0.8019    0.0000 H       1  UNL1        0.0271
     79 H          16.0614    0.3173    0.0000 H       1  UNL1        0.0342
     80 H          16.2651    1.1701    0.0000 H       1  UNL1        0.0342
     81 H          15.4122    1.3738    0.0000 H       1  UNL1        0.0342
@<TRIPOS>BOND
     1     1    18    1
     2     1    22    1
     3     2    19    1
     4     2    30    1
     5    20     3    1
     6     3    60    1
     7    23     4    1
     8     4    61    1
     9    25     5    1
    10     5    34    1
    11     6    29    1
    12     6    35    1
    13     7    29    2
    14     8    30    2
    15     9    32    1
    16     9    65    1
    17    10    31    2
    18    11    34    2
    19    12    38    1
    20    12    42    1
    21    13    42    2
    22    14    15    1
    23    14    16    1
    24    14    19    1
    25    14    22    1
    26    15    17    1
    27    15    20    1
    28    15    44    1
    29    16    18    1
    30    16    25    1
    31    16    45    1
    32    17    21    1
    33    17    26    1
    34    17    27    1
    35    18    23    1
    36    18    29    1
    37    19    24    1
    38    19    46    1
    39    20    23    1
    40    20    47    1
    41    21    24    1
    42    21    28    1
    43    21    48    1
    44    22    49    1
    45    22    50    1
    46    23    51    1
    47    24    52    1
    48    24    53    1
    49    25    30    1
    50    25    54    1
    51    26    31    1
    52    26    55    1
    53    26    56    1
    54    27    57    1
    55    27    58    1
    56    27    59    1
    57    28    32    2
    58    28    33    1
    59    31    32    1
    60    33    62    1
    61    33    63    1
    62    33    64    1
    63    34    36    1
    64    35    66    1
    65    35    67    1
    66    35    68    1
    67    36    37    2
    68    36    69    1
    69    37    38    1
    70    37    39    1
    71    38    40    1
    72    38    41    1
    73    39    70    1
    74    39    71    1
    75    39    72    1
    76    40    73    1
    77    40    74    1
    78    40    75    1
    79    41    76    1
    80    41    77    1
    81    41    78    1
    82    42    43    1
    83    43    79    1
    84    43    80    1
    85    43    81    1
