@<TRIPOS>MOLECULE
IMPHY008613
 57 58 0 0 0
SMALL
GASTEIGER

@<TRIPOS>ATOM
      1 O           5.1350    0.3100    0.0000 O.3     1  UNL1       -0.4792
      2 O           5.1350    2.3100    0.0000 O.3     1  UNL1       -0.3835
      3 O           9.4651    1.8100    0.0000 O.3     1  UNL1       -0.4914
      4 O           3.4030   -0.6900    0.0000 O.3     1  UNL1       -0.4913
      5 O           6.8671   -0.6900    0.0000 O.3     1  UNL1       -0.4913
      6 O           9.4651    3.8100    0.0000 O.3     1  UNL1       -0.4915
      7 O           2.5369   -4.1900    0.0000 O.3     1  UNL1       -0.3910
      8 C           6.0010    0.8100    0.0000 C.3     1  UNL1        0.1276
      9 C           6.0010    1.8100    0.0000 C.3     1  UNL1        0.1167
     10 C           6.8671    2.3100    0.0000 C.ar    1  UNL1       -0.0120
     11 C           6.8671    0.3100    0.0000 C.3     1  UNL1       -0.0250
     12 C           7.7331    1.8100    0.0000 C.ar    1  UNL1       -0.0106
     13 C           5.1350   -0.6900    0.0000 C.ar    1  UNL1        0.2041
     14 C           6.8671    3.3100    0.0000 C.ar    1  UNL1       -0.0523
     15 C           8.5991    2.3100    0.0000 C.ar    1  UNL1        0.1618
     16 C           4.2690   -1.1900    0.0000 C.ar    1  UNL1        0.1657
     17 C           6.0010   -1.1900    0.0000 C.ar    1  UNL1        0.1657
     18 C           7.7331    3.8100    0.0000 C.ar    1  UNL1       -0.0160
     19 C           8.5991    3.3100    0.0000 C.ar    1  UNL1        0.1615
     20 C           5.1350   -2.6900    0.0000 C.ar    1  UNL1       -0.0181
     21 C           4.2690   -2.1900    0.0000 C.ar    1  UNL1       -0.0089
     22 C           6.0010   -2.1900    0.0000 C.ar    1  UNL1       -0.0089
     23 C           5.1350   -3.6900    0.0000 C.2     1  UNL1       -0.0562
     24 C          10.3312    2.3100    0.0000 C.3     1  UNL1        0.0790
     25 C           4.2690   -4.1900    0.0000 C.2     1  UNL1       -0.0584
     26 C           2.5369   -1.1900    0.0000 C.3     1  UNL1        0.0790
     27 C           7.7331   -1.1900    0.0000 C.3     1  UNL1        0.0790
     28 C           9.4651    4.8100    0.0000 C.3     1  UNL1        0.0790
     29 C           3.4030   -3.6900    0.0000 C.3     1  UNL1        0.0627
     30 H           5.4641    1.1200    0.0000 H       1  UNL1        0.0760
     31 H           6.0010    2.4300    0.0000 H       1  UNL1        0.0681
     32 H           6.5571   -0.2269    0.0000 H       1  UNL1        0.0266
     33 H           7.4040   -0.0000    0.0000 H       1  UNL1        0.0266
     34 H           7.1771    0.8469    0.0000 H       1  UNL1        0.0266
     35 H           7.7331    1.1900    0.0000 H       1  UNL1        0.0659
     36 H           6.3301    3.6200    0.0000 H       1  UNL1        0.0622
     37 H           5.1350    2.9300    0.0000 H       1  UNL1        0.2104
     38 H           7.7331    4.4300    0.0000 H       1  UNL1        0.0655
     39 H           3.7320   -2.5000    0.0000 H       1  UNL1        0.0661
     40 H           6.5380   -2.5000    0.0000 H       1  UNL1        0.0661
     41 H           5.6720   -4.0000    0.0000 H       1  UNL1        0.0621
     42 H          10.6412    1.7731    0.0000 H       1  UNL1        0.0660
     43 H          10.8681    2.6200    0.0000 H       1  UNL1        0.0660
     44 H          10.0212    2.8469    0.0000 H       1  UNL1        0.0660
     45 H           4.2690   -4.8100    0.0000 H       1  UNL1        0.0595
     46 H           2.2269   -0.6531    0.0000 H       1  UNL1        0.0660
     47 H           2.0000   -1.5000    0.0000 H       1  UNL1        0.0660
     48 H           2.8469   -1.7269    0.0000 H       1  UNL1        0.0660
     49 H           7.4231   -1.7269    0.0000 H       1  UNL1        0.0660
     50 H           8.2700   -1.5000    0.0000 H       1  UNL1        0.0660
     51 H           8.0431   -0.6531    0.0000 H       1  UNL1        0.0660
     52 H          10.0851    4.8100    0.0000 H       1  UNL1        0.0660
     53 H           9.4651    5.4300    0.0000 H       1  UNL1        0.0660
     54 H           8.8451    4.8100    0.0000 H       1  UNL1        0.0660
     55 H           3.8015   -3.2151    0.0000 H       1  UNL1        0.0601
     56 H           3.0044   -3.2151    0.0000 H       1  UNL1        0.0601
     57 H           2.0000   -3.8800    0.0000 H       1  UNL1        0.2098
@<TRIPOS>BOND
     1     1     8    1
     2     1    13    1
     3     2     9    1
     4     2    37    1
     5     3    15    1
     6     3    24    1
     7     4    16    1
     8     4    26    1
     9     5    17    1
    10     5    27    1
    11     6    19    1
    12     6    28    1
    13     7    29    1
    14     7    57    1
    15     8     9    1
    16     8    11    1
    17     8    30    1
    18     9    10    1
    19     9    31    1
    20    10    12   ar
    21    10    14   ar
    22    11    32    1
    23    11    33    1
    24    11    34    1
    25    12    15   ar
    26    12    35    1
    27    13    16   ar
    28    13    17   ar
    29    14    18   ar
    30    14    36    1
    31    15    19   ar
    32    16    21   ar
    33    17    22   ar
    34    18    19   ar
    35    18    38    1
    36    20    21   ar
    37    20    22   ar
    38    20    23    1
    39    21    39    1
    40    22    40    1
    41    23    25    2
    42    23    41    1
    43    24    42    1
    44    24    43    1
    45    24    44    1
    46    25    29    1
    47    25    45    1
    48    26    46    1
    49    26    47    1
    50    26    48    1
    51    27    49    1
    52    27    50    1
    53    27    51    1
    54    28    52    1
    55    28    53    1
    56    28    54    1
    57    29    55    1
    58    29    56    1
