@<TRIPOS>MOLECULE
IMPHY015178
 22 22 0 0 0
SMALL
GASTEIGER

@<TRIPOS>ATOM
      1 N           3.7320    0.7306    0.0000 N.ar    1  UNL1       -0.3533
      2 C           2.8660   -0.7694    0.0000 C.3     1  UNL1       -0.0352
      3 C           3.7320   -0.2694    0.0000 C.3     1  UNL1        0.0227
      4 C           2.8660   -1.7694    0.0000 C.3     1  UNL1       -0.0543
      5 C           2.0000   -2.2694    0.0000 C.3     1  UNL1       -0.0652
      6 C           4.5411    1.3184    0.0000 C.ar    1  UNL1        0.0046
      7 C           2.9230    1.3184    0.0000 C.ar    1  UNL1        0.0046
      8 C           4.2320    2.2694    0.0000 C.ar    1  UNL1       -0.0442
      9 C           3.2320    2.2694    0.0000 C.ar    1  UNL1       -0.0442
     10 H           2.6540   -0.1868    0.0000 H       1  UNL1        0.0282
     11 H           2.2554   -0.8771    0.0000 H       1  UNL1        0.0282
     12 H           3.9441   -0.8520    0.0000 H       1  UNL1        0.0491
     13 H           4.3426   -0.1618    0.0000 H       1  UNL1        0.0491
     14 H           3.0781   -2.3520    0.0000 H       1  UNL1        0.0263
     15 H           3.4766   -1.6618    0.0000 H       1  UNL1        0.0263
     16 H           1.6900   -1.7325    0.0000 H       1  UNL1        0.0230
     17 H           1.4631   -2.5794    0.0000 H       1  UNL1        0.0230
     18 H           2.3100   -2.8064    0.0000 H       1  UNL1        0.0230
     19 H           5.1307    1.1268    0.0000 H       1  UNL1        0.0809
     20 H           2.3334    1.1268    0.0000 H       1  UNL1        0.0809
     21 H           4.5965    2.7710    0.0000 H       1  UNL1        0.0632
     22 H           2.8676    2.7710    0.0000 H       1  UNL1        0.0632
@<TRIPOS>BOND
     1     1     3    1
     2     1     6   ar
     3     1     7   ar
     4     2     3    1
     5     2     4    1
     6     2    10    1
     7     2    11    1
     8     3    12    1
     9     3    13    1
    10     4     5    1
    11     4    14    1
    12     4    15    1
    13     5    16    1
    14     5    17    1
    15     5    18    1
    16     6     8   ar
    17     6    19    1
    18     7     9   ar
    19     7    20    1
    20     8     9   ar
    21     8    21    1
    22     9    22    1
