@<TRIPOS>MOLECULE
IMPHY014050
 36 35 0 0 0
SMALL
GASTEIGER

@<TRIPOS>ATOM
      1 O           2.5369    0.0000    0.0000 O.3     1  UNL1       -0.4806
      2 O           3.4030   -1.5000    0.0000 O.2     1  UNL1       -0.2510
      3 C           6.8671   -0.5000    0.0000 C.3     1  UNL1       -0.0530
      4 C           7.7331    0.0000    0.0000 C.3     1  UNL1       -0.0528
      5 C           6.0010    0.0000    0.0000 C.3     1  UNL1       -0.0526
      6 C           8.5991   -0.5000    0.0000 C.3     1  UNL1       -0.0496
      7 C           5.1350   -0.5000    0.0000 C.3     1  UNL1       -0.0430
      8 C           9.4651   -0.0000    0.0000 C.3     1  UNL1       -0.0348
      9 C           4.2690    0.0000    0.0000 C.3     1  UNL1        0.0448
     10 C          10.3312   -0.5000    0.0000 C.2     1  UNL1       -0.0879
     11 C           3.4030   -0.5000    0.0000 C.2     1  UNL1        0.3047
     12 C          11.1972   -0.0000    0.0000 C.2     1  UNL1       -0.0882
     13 C          11.1972    1.0000    0.0000 C.3     1  UNL1       -0.0376
     14 C          12.0632    1.5000    0.0000 C.3     1  UNL1       -0.0618
     15 H           6.4685   -0.9749    0.0000 H       1  UNL1        0.0265
     16 H           7.2656   -0.9749    0.0000 H       1  UNL1        0.0265
     17 H           8.1316    0.4749    0.0000 H       1  UNL1        0.0265
     18 H           7.3346    0.4749    0.0000 H       1  UNL1        0.0265
     19 H           6.3996    0.4749    0.0000 H       1  UNL1        0.0265
     20 H           5.6025    0.4749    0.0000 H       1  UNL1        0.0265
     21 H           8.2006   -0.9749    0.0000 H       1  UNL1        0.0268
     22 H           8.9976   -0.9749    0.0000 H       1  UNL1        0.0268
     23 H           4.7365   -0.9749    0.0000 H       1  UNL1        0.0270
     24 H           5.5335   -0.9749    0.0000 H       1  UNL1        0.0270
     25 H           9.8637    0.4749    0.0000 H       1  UNL1        0.0307
     26 H           9.0666    0.4749    0.0000 H       1  UNL1        0.0307
     27 H           4.6675    0.4749    0.0000 H       1  UNL1        0.0377
     28 H           3.8705    0.4749    0.0000 H       1  UNL1        0.0377
     29 H          10.3312   -1.1200    0.0000 H       1  UNL1        0.0569
     30 H          11.7341   -0.3100    0.0000 H       1  UNL1        0.0569
     31 H          10.9851    1.5826    0.0000 H       1  UNL1        0.0305
     32 H          10.5866    0.8923    0.0000 H       1  UNL1        0.0305
     33 H          12.3732    0.9631    0.0000 H       1  UNL1        0.0233
     34 H          12.6002    1.8100    0.0000 H       1  UNL1        0.0233
     35 H          11.7532    2.0369    0.0000 H       1  UNL1        0.0233
     36 H           2.0000   -0.3100    0.0000 H       1  UNL1        0.2951
@<TRIPOS>BOND
     1     1    11    1
     2     1    36    1
     3     2    11    2
     4     3     4    1
     5     3     5    1
     6     3    15    1
     7     3    16    1
     8     4     6    1
     9     4    17    1
    10     4    18    1
    11     5     7    1
    12     5    19    1
    13     5    20    1
    14     6     8    1
    15     6    21    1
    16     6    22    1
    17     7     9    1
    18     7    23    1
    19     7    24    1
    20     8    10    1
    21     8    25    1
    22     8    26    1
    23     9    11    1
    24     9    27    1
    25     9    28    1
    26    10    12    2
    27    10    29    1
    28    12    13    1
    29    12    30    1
    30    13    14    1
    31    13    31    1
    32    13    32    1
    33    14    33    1
    34    14    34    1
    35    14    35    1
