@<TRIPOS>MOLECULE
IMPHY014326
 46 49 0 0 0
SMALL
GASTEIGER

@<TRIPOS>ATOM
      1 O           4.9997   -2.7428    0.0000 O.3     1  UNL1       -0.4855
      2 O           8.4332   -2.6064    0.0000 O.3     1  UNL1       -0.5064
      3 O           2.2287    1.5480    0.0000 O.3     1  UNL1       -0.5033
      4 O           3.5058    3.1494    0.0000 O.3     1  UNL1       -0.5033
      5 C           4.8609   -0.6782    0.0000 C.3     1  UNL1        0.0169
      6 C           3.9914   -1.2516    0.0000 C.3     1  UNL1       -0.0025
      7 C           4.0612   -2.2909    0.0000 C.3     1  UNL1        0.1060
      8 C           5.7619   -1.1121    0.0000 C.ar    1  UNL1        0.0055
      9 C           4.6384    0.2968    0.0000 C.ar    1  UNL1       -0.0329
     10 C           5.8557   -2.1494    0.0000 C.ar    1  UNL1        0.1316
     11 C           6.6629   -0.6782    0.0000 C.ar    1  UNL1       -0.0364
     12 C           6.8854    0.2968    0.0000 C.3     1  UNL1       -0.0232
     13 C           5.2619    1.0786    0.0000 C.ar    1  UNL1       -0.0396
     14 C           6.2619    1.0786    0.0000 C.3     1  UNL1       -0.0233
     15 C           3.6238   -3.1902    0.0000 C.3     1  UNL1       -0.0252
     16 C           3.0637   -2.3618    0.0000 C.3     1  UNL1       -0.0252
     17 C           6.7131   -2.6328    0.0000 C.ar    1  UNL1        0.0329
     18 C           7.5312   -1.1415    0.0000 C.ar    1  UNL1       -0.0162
     19 C           3.6062    0.4361    0.0000 C.ar    1  UNL1       -0.0125
     20 C           7.5565   -2.1254    0.0000 C.ar    1  UNL1        0.1235
     21 C           4.8964    2.0540    0.0000 C.ar    1  UNL1       -0.0131
     22 C           3.2181    1.4028    0.0000 C.ar    1  UNL1        0.1585
     23 C           6.7272   -3.6327    0.0000 C.3     1  UNL1       -0.0328
     24 C           3.8676    2.2172    0.0000 C.ar    1  UNL1        0.1585
     25 H           4.2856   -0.4472    0.0000 H       1  UNL1        0.0400
     26 H           3.7436   -0.6832    0.0000 H       1  UNL1        0.0313
     27 H           3.3890   -1.3984    0.0000 H       1  UNL1        0.0313
     28 H           7.4440    0.0277    0.0000 H       1  UNL1        0.0316
     29 H           7.2720    0.7815    0.0000 H       1  UNL1        0.0316
     30 H           6.8205    1.3476    0.0000 H       1  UNL1        0.0316
     31 H           6.1239    1.6830    0.0000 H       1  UNL1        0.0316
     32 H           3.0663   -2.9190    0.0000 H       1  UNL1        0.0268
     33 H           3.3527   -3.7477    0.0000 H       1  UNL1        0.0268
     34 H           4.1814   -3.4613    0.0000 H       1  UNL1        0.0268
     35 H           3.0198   -1.7433    0.0000 H       1  UNL1        0.0268
     36 H           2.4453   -2.4057    0.0000 H       1  UNL1        0.0268
     37 H           3.1076   -2.9802    0.0000 H       1  UNL1        0.0268
     38 H           8.0587   -0.8158    0.0000 H       1  UNL1        0.0657
     39 H           3.2252   -0.0531    0.0000 H       1  UNL1        0.0658
     40 H           5.2885    2.5342    0.0000 H       1  UNL1        0.0658
     41 H           6.1073   -3.6414    0.0000 H       1  UNL1        0.0280
     42 H           6.7360   -4.2526    0.0000 H       1  UNL1        0.0280
     43 H           7.3472   -3.6239    0.0000 H       1  UNL1        0.0280
     44 H           8.9632   -2.2847    0.0000 H       1  UNL1        0.2921
     45 H           2.0000    2.1243    0.0000 H       1  UNL1        0.2923
     46 H           3.8943    3.6327    0.0000 H       1  UNL1        0.2923
@<TRIPOS>BOND
     1     1     7    1
     2     1    10    1
     3     2    20    1
     4     2    44    1
     5     3    22    1
     6     3    45    1
     7     4    24    1
     8     4    46    1
     9     5     6    1
    10     5     8    1
    11     5     9    1
    12     5    25    1
    13     6     7    1
    14     6    26    1
    15     6    27    1
    16     7    15    1
    17     7    16    1
    18     8    10   ar
    19     8    11   ar
    20     9    13   ar
    21     9    19   ar
    22    10    17   ar
    23    11    12    1
    24    11    18   ar
    25    12    14    1
    26    12    28    1
    27    12    29    1
    28    13    14    1
    29    13    21   ar
    30    14    30    1
    31    14    31    1
    32    15    32    1
    33    15    33    1
    34    15    34    1
    35    16    35    1
    36    16    36    1
    37    16    37    1
    38    17    20   ar
    39    17    23    1
    40    18    20   ar
    41    18    38    1
    42    19    22   ar
    43    19    39    1
    44    21    24   ar
    45    21    40    1
    46    22    24   ar
    47    23    41    1
    48    23    42    1
    49    23    43    1
