@<TRIPOS>MOLECULE
IMPHY008747
 51 53 0 0 0
SMALL
GASTEIGER

@<TRIPOS>ATOM
      1 O           6.3981   -0.1481    0.0000 O.2     1  UNL1       -0.4504
      2 O           2.8680   -0.1723    0.0000 O.3     1  UNL1       -0.4946
      3 O           4.6497    2.8864    0.0000 O.3     1  UNL1       -0.5058
      4 O           8.1301    1.8518    0.0000 O.3     1  UNL1       -0.5007
      5 O           6.3981    2.8519    0.0000 O.2     1  UNL1       -0.2830
      6 O          10.7282   -1.6482    0.0000 O.3     1  UNL1       -0.4915
      7 O           8.9962   -2.6481    0.0000 O.3     1  UNL1       -0.5033
      8 C           4.6381   -0.1828    0.0000 C.ar    1  UNL1        0.0411
      9 C           5.5320    0.3519    0.0000 C.ar    1  UNL1        0.1500
     10 C           5.5320    1.3518    0.0000 C.ar    1  UNL1        0.1094
     11 C           4.6497   -1.1827    0.0000 C.3     1  UNL1       -0.0023
     12 C           3.7320    0.3310    0.0000 C.ar    1  UNL1        0.1305
     13 C           4.6381    1.8865    0.0000 C.ar    1  UNL1        0.1348
     14 C           7.2641    0.3519    0.0000 C.ar    1  UNL1        0.1807
     15 C           6.3981    1.8518    0.0000 C.ar    1  UNL1        0.2379
     16 C           3.7320    1.3727    0.0000 C.ar    1  UNL1        0.0228
     17 C           7.2641    1.3518    0.0000 C.ar    1  UNL1        0.2082
     18 C           8.1301   -0.1481    0.0000 C.ar    1  UNL1        0.0247
     19 C           3.7895   -1.6927    0.0000 C.2     1  UNL1       -0.0807
     20 C           3.8010   -2.6927    0.0000 C.2     1  UNL1       -0.0793
     21 C           8.1301   -1.1482    0.0000 C.ar    1  UNL1       -0.0057
     22 C           8.9962    0.3519    0.0000 C.ar    1  UNL1       -0.0473
     23 C           8.9962   -1.6482    0.0000 C.ar    1  UNL1        0.1591
     24 C           9.8622   -0.1481    0.0000 C.ar    1  UNL1       -0.0156
     25 C           9.8622   -1.1482    0.0000 C.ar    1  UNL1        0.1613
     26 C           2.9409   -3.2026    0.0000 C.3     1  UNL1       -0.0440
     27 C           4.6728   -3.1826    0.0000 C.3     1  UNL1       -0.0440
     28 C           2.0000    0.3244    0.0000 C.3     1  UNL1        0.0788
     29 C          11.5942   -1.1482    0.0000 C.3     1  UNL1        0.0790
     30 H           4.8684   -1.7629    0.0000 H       1  UNL1        0.0358
     31 H           5.2590   -1.0680    0.0000 H       1  UNL1        0.0358
     32 H           3.1963    1.6847    0.0000 H       1  UNL1        0.0691
     33 H           3.2490   -1.3889    0.0000 H       1  UNL1        0.0575
     34 H           7.5932   -1.4582    0.0000 H       1  UNL1        0.0662
     35 H           8.9962    0.9719    0.0000 H       1  UNL1        0.0626
     36 H          10.3991    0.1619    0.0000 H       1  UNL1        0.0655
     37 H           4.1164    3.2026    0.0000 H       1  UNL1        0.2922
     38 H           2.6247   -2.6693    0.0000 H       1  UNL1        0.0274
     39 H           4.3690   -3.7231    0.0000 H       1  UNL1        0.0274
     40 H           5.2133   -3.4864    0.0000 H       1  UNL1        0.0274
     41 H           4.9766   -2.6421    0.0000 H       1  UNL1        0.0274
     42 H           2.4075   -3.5188    0.0000 H       1  UNL1        0.0274
     43 H           3.2570   -3.7360    0.0000 H       1  UNL1        0.0274
     44 H           8.1301    2.4718    0.0000 H       1  UNL1        0.2924
     45 H           2.3079    0.8625    0.0000 H       1  UNL1        0.0660
     46 H           1.4619    0.6323    0.0000 H       1  UNL1        0.0660
     47 H           1.6921   -0.2138    0.0000 H       1  UNL1        0.0660
     48 H           9.5331   -2.9582    0.0000 H       1  UNL1        0.2923
     49 H          11.9042   -1.6851    0.0000 H       1  UNL1        0.0660
     50 H          12.1312   -0.8381    0.0000 H       1  UNL1        0.0660
     51 H          11.2842   -0.6112    0.0000 H       1  UNL1        0.0660
@<TRIPOS>BOND
     1     1     9   ar
     2     1    14   ar
     3     2    12    1
     4     2    28    1
     5     3    13    1
     6     3    37    1
     7     4    17    1
     8     4    44    1
     9     5    15    2
    10     6    25    1
    11     6    29    1
    12     7    23    1
    13     7    48    1
    14     8     9   ar
    15     8    11    1
    16     8    12   ar
    17     9    10   ar
    18    10    13   ar
    19    10    15   ar
    20    11    19    1
    21    11    30    1
    22    11    31    1
    23    12    16   ar
    24    13    16   ar
    25    14    17   ar
    26    14    18    1
    27    15    17   ar
    28    16    32    1
    29    18    21   ar
    30    18    22   ar
    31    19    20    2
    32    19    33    1
    33    20    26    1
    34    20    27    1
    35    21    23   ar
    36    21    34    1
    37    22    24   ar
    38    22    35    1
    39    23    25   ar
    40    24    25   ar
    41    24    36    1
    42    26    38    1
    43    26    42    1
    44    26    43    1
    45    27    39    1
    46    27    40    1
    47    27    41    1
    48    28    45    1
    49    28    46    1
    50    28    47    1
    51    29    49    1
    52    29    50    1
    53    29    51    1
