@<TRIPOS>MOLECULE
IMPHY014041
 62 63 0 0 0
SMALL
GASTEIGER

@<TRIPOS>ATOM
      1 O           3.7320   -1.4976    0.0000 O.3     1  UNL1       -0.4468
      2 O           5.5902   -1.8573    0.0000 O.3     1  UNL1       -0.3754
      3 O           8.2848   -1.1488    0.0000 O.3     1  UNL1       -0.4512
      4 O           5.0464    0.6754    0.0000 O.3     1  UNL1       -0.4570
      5 O           5.9375    0.1123    0.0000 O.3     1  UNL1       -0.3887
      6 O           7.6922   -2.7546    0.0000 O.2     1  UNL1       -0.2475
      7 O           5.8788   -1.1097    0.0000 O.2     1  UNL1       -0.2463
      8 O           7.3610   -0.7661    0.0000 O.2     1  UNL1       -0.2883
      9 O           2.8660    0.0023    0.0000 O.2     1  UNL1       -0.2511
     10 N           8.9498    2.0476    0.0000 N.3     1  UNL1       -0.3016
     11 C           4.8569   -1.9636    0.0000 C.3     1  UNL1        0.0097
     12 C           5.8228   -2.2224    0.0000 C.3     1  UNL1       -0.0043
     13 C           6.5299   -1.5153    0.0000 C.3     1  UNL1        0.1881
     14 C           4.5981   -0.9977    0.0000 C.3     1  UNL1        0.2087
     15 C           6.7036   -0.5305    0.0000 C.3     1  UNL1        0.0915
     16 C           4.1498   -2.6707    0.0000 C.3     1  UNL1       -0.0581
     17 C           7.4958   -1.7741    0.0000 C.2     1  UNL1        0.3424
     18 C           3.7320   -0.4977    0.0000 C.3     1  UNL1       -0.0139
     19 C           5.3052   -0.2905    0.0000 C.2     1  UNL1        0.3518
     20 C           8.0260   -0.1829    0.0000 C.3     1  UNL1        0.1661
     21 C           7.6995    0.0445    0.0000 C.3     1  UNL1       -0.0357
     22 C           8.9498    0.1998    0.0000 C.3     1  UNL1        0.0045
     23 C           9.3325    1.1237    0.0000 C.3     1  UNL1        0.0027
     24 C           7.1021    0.1998    0.0000 C.2     1  UNL1        0.2025
     25 C           6.7194    1.1237    0.0000 C.2     1  UNL1        0.0331
     26 C           5.7535    1.3825    0.0000 C.3     1  UNL1        0.1207
     27 C           8.0260    2.4302    0.0000 C.3     1  UNL1        0.0176
     28 C           7.1021    2.0476    0.0000 C.2     1  UNL1       -0.0602
     29 C           2.8660   -0.9977    0.0000 C.2     1  UNL1        0.3050
     30 C           9.6570    2.7546    0.0000 C.3     1  UNL1       -0.0124
     31 C           2.0000   -1.4976    0.0000 C.3     1  UNL1        0.0333
     32 H           5.0174   -2.5624    0.0000 H       1  UNL1        0.0343
     33 H           5.5608   -2.7843    0.0000 H       1  UNL1        0.0303
     34 H           6.3307   -2.5780    0.0000 H       1  UNL1        0.0303
     35 H           6.1210   -0.7425    0.0000 H       1  UNL1        0.0625
     36 H           3.7114   -2.2323    0.0000 H       1  UNL1        0.0234
     37 H           3.7114   -3.1091    0.0000 H       1  UNL1        0.0234
     38 H           4.5882   -3.1091    0.0000 H       1  UNL1        0.0234
     39 H           4.0420    0.0393    0.0000 H       1  UNL1        0.0274
     40 H           3.1951   -0.1877    0.0000 H       1  UNL1        0.0274
     41 H           3.4220   -1.0346    0.0000 H       1  UNL1        0.0274
     42 H           8.5820   -0.4571    0.0000 H       1  UNL1        0.0819
     43 H           8.0095   -0.4924    0.0000 H       1  UNL1        0.0255
     44 H           8.2364    0.3545    0.0000 H       1  UNL1        0.0255
     45 H           7.3895    0.5815    0.0000 H       1  UNL1        0.0255
     46 H           9.0308   -0.4149    0.0000 H       1  UNL1        0.0318
     47 H           9.5645    0.1189    0.0000 H       1  UNL1        0.0318
     48 H           5.2803   -2.3942    0.0000 H       1  UNL1        0.2110
     49 H           9.8244    0.7462    0.0000 H       1  UNL1        0.0428
     50 H           9.8244    1.5011    0.0000 H       1  UNL1        0.0428
     51 H           6.0155    1.9444    0.0000 H       1  UNL1        0.0750
     52 H           5.2456    1.7381    0.0000 H       1  UNL1        0.0750
     53 H           6.0452    0.7229    0.0000 H       1  UNL1        0.2099
     54 H           8.4034    2.9221    0.0000 H       1  UNL1        0.0470
     55 H           7.6485    2.9221    0.0000 H       1  UNL1        0.0470
     56 H           6.6637    2.4860    0.0000 H       1  UNL1        0.0590
     57 H          10.0954    2.3162    0.0000 H       1  UNL1        0.0391
     58 H          10.0954    3.1931    0.0000 H       1  UNL1        0.0391
     59 H           9.2185    3.1931    0.0000 H       1  UNL1        0.0391
     60 H           1.6900   -0.9607    0.0000 H       1  UNL1        0.0342
     61 H           1.4631   -1.8076    0.0000 H       1  UNL1        0.0342
     62 H           2.3100   -2.0346    0.0000 H       1  UNL1        0.0342
@<TRIPOS>BOND
     1     1    14    1
     2     1    29    1
     3     2    13    1
     4     2    48    1
     5     3    17    1
     6     3    20    1
     7     4    19    1
     8     4    26    1
     9     5    15    1
    10     5    53    1
    11     6    17    2
    12     7    19    2
    13     8    24    2
    14     9    29    2
    15    10    23    1
    16    10    27    1
    17    10    30    1
    18    11    12    1
    19    11    14    1
    20    11    16    1
    21    11    32    1
    22    12    13    1
    23    12    33    1
    24    12    34    1
    25    13    15    1
    26    13    17    1
    27    14    18    1
    28    14    19    1
    29    15    21    1
    30    15    35    1
    31    16    36    1
    32    16    37    1
    33    16    38    1
    34    18    39    1
    35    18    40    1
    36    18    41    1
    37    20    22    1
    38    20    24    1
    39    20    42    1
    40    21    43    1
    41    21    44    1
    42    21    45    1
    43    22    23    1
    44    22    46    1
    45    22    47    1
    46    23    49    1
    47    23    50    1
    48    24    25    1
    49    25    26    1
    50    25    28    2
    51    26    51    1
    52    26    52    1
    53    27    28    1
    54    27    54    1
    55    27    55    1
    56    28    56    1
    57    29    31    1
    58    30    57    1
    59    30    58    1
    60    30    59    1
    61    31    60    1
    62    31    61    1
    63    31    62    1
