@<TRIPOS>MOLECULE
IMPHY017701
 72 71 0 0 0
SMALL
GASTEIGER

@<TRIPOS>ATOM
      1 O           3.7320    0.7500    0.0000 O.3     1  UNL1       -0.4618
      2 O           4.5981   -0.7500    0.0000 O.2     1  UNL1       -0.2456
      3 C          14.9904    0.2500    0.0000 C.3     1  UNL1       -0.0531
      4 C          14.1244    0.7500    0.0000 C.3     1  UNL1       -0.0531
      5 C          15.8564    0.7500    0.0000 C.3     1  UNL1       -0.0531
      6 C          13.2583    0.2500    0.0000 C.3     1  UNL1       -0.0531
      7 C          16.7224    0.2500    0.0000 C.3     1  UNL1       -0.0531
      8 C          12.3923    0.7500    0.0000 C.3     1  UNL1       -0.0531
      9 C          17.5885    0.7500    0.0000 C.3     1  UNL1       -0.0531
     10 C          11.5263    0.2500    0.0000 C.3     1  UNL1       -0.0531
     11 C          18.4545    0.2500    0.0000 C.3     1  UNL1       -0.0531
     12 C          10.6603    0.7500    0.0000 C.3     1  UNL1       -0.0531
     13 C          19.3205    0.7500    0.0000 C.3     1  UNL1       -0.0531
     14 C           9.7942    0.2500    0.0000 C.3     1  UNL1       -0.0530
     15 C          20.1865    0.2500    0.0000 C.3     1  UNL1       -0.0531
     16 C           8.9282    0.7500    0.0000 C.3     1  UNL1       -0.0528
     17 C          21.0526    0.7500    0.0000 C.3     1  UNL1       -0.0533
     18 C           8.0622    0.2500    0.0000 C.3     1  UNL1       -0.0496
     19 C          21.9186    0.2500    0.0000 C.3     1  UNL1       -0.0559
     20 C           7.1962    0.7500    0.0000 C.3     1  UNL1       -0.0343
     21 C          22.7846    0.7500    0.0000 C.3     1  UNL1       -0.0653
     22 C           6.3301    0.2500    0.0000 C.2     1  UNL1       -0.0773
     23 C           5.4641    0.7500    0.0000 C.2     1  UNL1        0.0186
     24 C           4.5981    0.2500    0.0000 C.2     1  UNL1        0.3316
     25 C           2.8660    0.2500    0.0000 C.3     1  UNL1        0.0900
     26 C           2.0000    0.7500    0.0000 C.3     1  UNL1       -0.0306
     27 H          14.5919   -0.2249    0.0000 H       1  UNL1        0.0265
     28 H          15.3889   -0.2249    0.0000 H       1  UNL1        0.0265
     29 H          14.5229    1.2250    0.0000 H       1  UNL1        0.0265
     30 H          13.7258    1.2250    0.0000 H       1  UNL1        0.0265
     31 H          16.2549    1.2250    0.0000 H       1  UNL1        0.0265
     32 H          15.4579    1.2250    0.0000 H       1  UNL1        0.0265
     33 H          12.8598   -0.2249    0.0000 H       1  UNL1        0.0265
     34 H          13.6569   -0.2249    0.0000 H       1  UNL1        0.0265
     35 H          16.3239   -0.2249    0.0000 H       1  UNL1        0.0265
     36 H          17.1210   -0.2249    0.0000 H       1  UNL1        0.0265
     37 H          12.7908    1.2250    0.0000 H       1  UNL1        0.0265
     38 H          11.9938    1.2250    0.0000 H       1  UNL1        0.0265
     39 H          17.9870    1.2250    0.0000 H       1  UNL1        0.0265
     40 H          17.1899    1.2250    0.0000 H       1  UNL1        0.0265
     41 H          11.1278   -0.2249    0.0000 H       1  UNL1        0.0265
     42 H          11.9248   -0.2249    0.0000 H       1  UNL1        0.0265
     43 H          18.0560   -0.2249    0.0000 H       1  UNL1        0.0265
     44 H          18.8530   -0.2249    0.0000 H       1  UNL1        0.0265
     45 H          11.0588    1.2250    0.0000 H       1  UNL1        0.0265
     46 H          10.2617    1.2250    0.0000 H       1  UNL1        0.0265
     47 H          19.7190    1.2250    0.0000 H       1  UNL1        0.0265
     48 H          18.9220    1.2250    0.0000 H       1  UNL1        0.0265
     49 H           9.3957   -0.2249    0.0000 H       1  UNL1        0.0265
     50 H          10.1928   -0.2249    0.0000 H       1  UNL1        0.0265
     51 H          19.7880   -0.2249    0.0000 H       1  UNL1        0.0265
     52 H          20.5851   -0.2249    0.0000 H       1  UNL1        0.0265
     53 H           9.3267    1.2250    0.0000 H       1  UNL1        0.0265
     54 H           8.5297    1.2250    0.0000 H       1  UNL1        0.0265
     55 H          21.4511    1.2250    0.0000 H       1  UNL1        0.0265
     56 H          20.6540    1.2250    0.0000 H       1  UNL1        0.0265
     57 H           7.6636   -0.2249    0.0000 H       1  UNL1        0.0268
     58 H           8.4607   -0.2249    0.0000 H       1  UNL1        0.0268
     59 H          21.5201   -0.2249    0.0000 H       1  UNL1        0.0263
     60 H          22.3171   -0.2249    0.0000 H       1  UNL1        0.0263
     61 H           7.5947    1.2250    0.0000 H       1  UNL1        0.0307
     62 H           6.7976    1.2250    0.0000 H       1  UNL1        0.0307
     63 H          23.0946    0.2131    0.0000 H       1  UNL1        0.0230
     64 H          23.3215    1.0600    0.0000 H       1  UNL1        0.0230
     65 H          22.4746    1.2869    0.0000 H       1  UNL1        0.0230
     66 H           6.3301   -0.3700    0.0000 H       1  UNL1        0.0574
     67 H           5.4641    1.3700    0.0000 H       1  UNL1        0.0686
     68 H           2.4675   -0.2249    0.0000 H       1  UNL1        0.0695
     69 H           3.2646   -0.2249    0.0000 H       1  UNL1        0.0695
     70 H           2.3100    1.2869    0.0000 H       1  UNL1        0.0262
     71 H           1.4631    1.0600    0.0000 H       1  UNL1        0.0262
     72 H           1.6900    0.2131    0.0000 H       1  UNL1        0.0262
@<TRIPOS>BOND
     1     1    24    1
     2     1    25    1
     3     2    24    2
     4     3     4    1
     5     3     5    1
     6     3    27    1
     7     3    28    1
     8     4     6    1
     9     4    29    1
    10     4    30    1
    11     5     7    1
    12     5    31    1
    13     5    32    1
    14     6     8    1
    15     6    33    1
    16     6    34    1
    17     7     9    1
    18     7    35    1
    19     7    36    1
    20     8    10    1
    21     8    37    1
    22     8    38    1
    23     9    11    1
    24     9    39    1
    25     9    40    1
    26    10    12    1
    27    10    41    1
    28    10    42    1
    29    11    13    1
    30    11    43    1
    31    11    44    1
    32    12    14    1
    33    12    45    1
    34    12    46    1
    35    13    15    1
    36    13    47    1
    37    13    48    1
    38    14    16    1
    39    14    49    1
    40    14    50    1
    41    15    17    1
    42    15    51    1
    43    15    52    1
    44    16    18    1
    45    16    53    1
    46    16    54    1
    47    17    19    1
    48    17    55    1
    49    17    56    1
    50    18    20    1
    51    18    57    1
    52    18    58    1
    53    19    21    1
    54    19    59    1
    55    19    60    1
    56    20    22    1
    57    20    61    1
    58    20    62    1
    59    21    63    1
    60    21    64    1
    61    21    65    1
    62    22    23    2
    63    22    66    1
    64    23    24    1
    65    23    67    1
    66    25    26    1
    67    25    68    1
    68    25    69    1
    69    26    70    1
    70    26    71    1
    71    26    72    1
