@<TRIPOS>MOLECULE
IMPHY002023
 37 39 0 0 0
SMALL
GASTEIGER

@<TRIPOS>ATOM
      1 O           6.4783   -1.0720    0.0000 O.3     1  UNL1       -0.4608
      2 O           8.0619   -0.2673    0.0000 O.2     1  UNL1       -0.2505
      3 C           3.8000   -0.7673    0.0000 C.3     1  UNL1       -0.0039
      4 C           5.5321    0.2327    0.0000 C.3     1  UNL1        0.0094
      5 C           3.8000    0.2327    0.0000 C.3     1  UNL1       -0.0105
      6 C           5.5321   -0.7673    0.0000 C.3     1  UNL1        0.1074
      7 C           4.6660    0.7327    0.0000 C.3     1  UNL1       -0.0388
      8 C           4.6660   -1.2673    0.0000 C.3     1  UNL1       -0.0060
      9 C           6.4783    0.5374    0.0000 C.3     1  UNL1        0.0598
     10 C           2.9061    0.7674    0.0000 C.2     1  UNL1       -0.0687
     11 C           3.8000   -1.7673    0.0000 C.3     1  UNL1       -0.0554
     12 C           2.9061   -1.3020    0.0000 C.2     1  UNL1       -0.0774
     13 C           7.0619   -0.2673    0.0000 C.2     1  UNL1        0.3106
     14 C           6.7889    1.4880    0.0000 C.3     1  UNL1       -0.0519
     15 C           2.0000    0.2535    0.0000 C.2     1  UNL1       -0.0628
     16 C           2.0000   -0.7881    0.0000 C.2     1  UNL1       -0.0652
     17 C           2.9176    1.7673    0.0000 C.3     1  UNL1       -0.0432
     18 H           5.6220    1.0779    0.0000 H       1  UNL1        0.0344
     19 H           3.8066    1.0827    0.0000 H       1  UNL1        0.0354
     20 H           5.6220   -1.6125    0.0000 H       1  UNL1        0.0737
     21 H           5.0646    1.2076    0.0000 H       1  UNL1        0.0275
     22 H           4.2675    1.2076    0.0000 H       1  UNL1        0.0275
     23 H           4.2675   -1.7422    0.0000 H       1  UNL1        0.0309
     24 H           5.0646   -1.7422    0.0000 H       1  UNL1        0.0309
     25 H           7.0908    0.6336    0.0000 H       1  UNL1        0.0415
     26 H           3.1800   -1.7673    0.0000 H       1  UNL1        0.0238
     27 H           3.8000   -2.3873    0.0000 H       1  UNL1        0.0238
     28 H           4.4200   -1.7673    0.0000 H       1  UNL1        0.0238
     29 H           2.9132   -1.9219    0.0000 H       1  UNL1        0.0578
     30 H           7.3783    1.2953    0.0000 H       1  UNL1        0.0238
     31 H           6.9816    2.0773    0.0000 H       1  UNL1        0.0238
     32 H           6.1996    1.6806    0.0000 H       1  UNL1        0.0238
     33 H           1.4643    0.5656    0.0000 H       1  UNL1        0.0617
     34 H           1.4643   -1.1002    0.0000 H       1  UNL1        0.0615
     35 H           3.5376    1.7601    0.0000 H       1  UNL1        0.0275
     36 H           2.9248    2.3873    0.0000 H       1  UNL1        0.0275
     37 H           2.2977    1.7745    0.0000 H       1  UNL1        0.0275
@<TRIPOS>BOND
     1     1     6    1
     2     1    13    1
     3     2    13    2
     4     3     5    1
     5     3     8    1
     6     3    11    1
     7     3    12    1
     8     4     6    1
     9     4     7    1
    10     4     9    1
    11     4    18    1
    12     5     7    1
    13     5    10    1
    14     5    19    1
    15     6     8    1
    16     6    20    1
    17     7    21    1
    18     7    22    1
    19     8    23    1
    20     8    24    1
    21     9    13    1
    22     9    14    1
    23     9    25    1
    24    10    15    2
    25    10    17    1
    26    11    26    1
    27    11    27    1
    28    11    28    1
    29    12    16    2
    30    12    29    1
    31    14    30    1
    32    14    31    1
    33    14    32    1
    34    15    16    1
    35    15    33    1
    36    16    34    1
    37    17    35    1
    38    17    36    1
    39    17    37    1
