@<TRIPOS>MOLECULE
IMPHY001983
 35 37 0 0 0
SMALL
GASTEIGER

@<TRIPOS>ATOM
      1 O           7.7331    2.0000    0.0000 O.2     2  TYR2       -0.2735
      2 O           7.7331   -2.0000    0.0000 O.2     1  PRO1       -0.2738
      3 OH          2.5369   -1.0000    0.0000 O.3     2  TYR2       -0.5068
      4 N           8.5991    0.5000    0.0000 N.am    1  PRO1       -0.2884
      5 N           6.8671   -0.5000    0.0000 N.am    2  TYR2       -0.3021
      6 CA          8.5991   -0.5000    0.0000 C.3     1  PRO1        0.1023
      7 CB          9.5453   -0.8047    0.0000 C.3     1  PRO1       -0.0243
      8 CD          9.5453    0.8047    0.0000 C.3     1  PRO1        0.0156
      9 CG         10.1289    0.0000    0.0000 C.3     1  PRO1       -0.0350
     10 CA          6.8671    0.5000    0.0000 C.3     2  TYR2        0.1036
     11 C           7.7331    1.0000    0.0000 C.2     2  TYR2        0.2368
     12 C           7.7331   -1.0000    0.0000 C.2     1  PRO1        0.2342
     13 CB          6.0010    1.0000    0.0000 C.3     2  TYR2       -0.0006
     14 CG          5.1350    0.5000    0.0000 C.ar    2  TYR2       -0.0449
     15 CD1         4.2690    1.0000    0.0000 C.ar    2  TYR2       -0.0551
     16 CD2         5.1350   -0.5000    0.0000 C.ar    2  TYR2       -0.0551
     17 CE1         3.4030    0.5000    0.0000 C.ar    2  TYR2       -0.0199
     18 CE2         4.2690   -1.0000    0.0000 C.ar    2  TYR2       -0.0199
     19 CZ          3.4030   -0.5000    0.0000 C.ar    2  TYR2        0.1169
     20 HA          8.6891   -1.3452    0.0000 H       1  PRO1        0.0597
     21 HB1         9.2943   -1.3716    0.0000 H       1  PRO1        0.0288
     22 HB2        10.0827   -1.1140    0.0000 H       1  PRO1        0.0288
     23 HD1        10.0827    1.1140    0.0000 H       1  PRO1        0.0465
     24 HD2         9.2943    1.3716    0.0000 H       1  PRO1        0.0465
     25 HG1        10.5898   -0.4147    0.0000 H       1  PRO1        0.0281
     26 HG2        10.5898    0.4147    0.0000 H       1  PRO1        0.0281
     27 HA          6.3301    0.1900    0.0000 H       2  TYR2        0.0598
     28 H           6.3301   -0.8100    0.0000 H       2  TYR2        0.1495
     29 HB1         6.3996    1.4750    0.0000 H       2  TYR2        0.0336
     30 HB2         5.6025    1.4750    0.0000 H       2  TYR2        0.0336
     31 HD1         4.2690    1.6200    0.0000 H       2  TYR2        0.0621
     32 HD2         5.6720   -0.8100    0.0000 H       2  TYR2        0.0621
     33 HE1         2.8660    0.8100    0.0000 H       2  TYR2        0.0654
     34 HE2         4.2690   -1.6200    0.0000 H       2  TYR2        0.0654
     35 HH          2.0000   -0.6900    0.0000 H       2  TYR2        0.2921
@<TRIPOS>BOND
     1     1    11    2
     2     2    12    2
     3     3    19    1
     4     3    35    1
     5     4     6    1
     6     4     8    1
     7     4    11   am
     8     5    10    1
     9     5    12   am
    10     5    28    1
    11     6     7    1
    12     6    12    1
    13     6    20    1
    14     7     9    1
    15     7    21    1
    16     7    22    1
    17     8     9    1
    18     8    23    1
    19     8    24    1
    20     9    25    1
    21     9    26    1
    22    10    11    1
    23    10    13    1
    24    10    27    1
    25    13    14    1
    26    13    29    1
    27    13    30    1
    28    14    15   ar
    29    14    16   ar
    30    15    17   ar
    31    15    31    1
    32    16    18   ar
    33    16    32    1
    34    17    19   ar
    35    17    33    1
    36    18    19   ar
    37    18    34    1
