@<TRIPOS>MOLECULE
IMPHY002559
 45 47 0 0 0
SMALL
GASTEIGER

@<TRIPOS>ATOM
      1 O           2.0000    0.2247    0.0000 O.2     1  UNL1       -0.2927
      2 O           4.6423    1.7320    0.0000 O.2     1  UNL1       -0.2832
      3 O           6.4082    2.7698    0.0000 O.2     1  UNL1       -0.2835
      4 C           4.6641   -1.2995    0.0000 C.3     1  UNL1        0.0175
      5 C           3.7702   -1.8341    0.0000 C.3     1  UNL1       -0.0151
      6 C           4.6641   -0.2995    0.0000 C.2     1  UNL1       -0.0224
      7 C           2.8641   -1.3203    0.0000 C.3     1  UNL1        0.0161
      8 C           4.8379   -2.2842    0.0000 C.3     1  UNL1       -0.0515
      9 C           3.2802   -2.7059    0.0000 C.3     1  UNL1       -0.0583
     10 C           4.1230   -2.7698    0.0000 C.3     1  UNL1       -0.0583
     11 C           5.5301   -1.7995    0.0000 C.2     1  UNL1       -0.0727
     12 C           5.5301    0.2005    0.0000 C.2     1  UNL1        0.0368
     13 C           3.7702    0.2352    0.0000 C.2     1  UNL1       -0.0145
     14 C           2.8641   -0.2786    0.0000 C.2     1  UNL1        0.1569
     15 C           6.3961   -0.2995    0.0000 C.2     1  UNL1       -0.0137
     16 C           6.3961   -1.2995    0.0000 C.2     1  UNL1       -0.0570
     17 C           5.5141    1.2421    0.0000 C.2     1  UNL1        0.2334
     18 C           7.3062    0.2074    0.0000 C.2     1  UNL1       -0.0467
     19 C           7.3142    1.2490    0.0000 C.2     1  UNL1        0.0063
     20 C           6.4121    1.7698    0.0000 C.2     1  UNL1        0.2293
     21 C           8.1821    1.7456    0.0000 C.3     1  UNL1       -0.0178
     22 C           9.0462    1.2423    0.0000 C.3     1  UNL1       -0.0585
     23 C           8.1860    2.7456    0.0000 C.3     1  UNL1       -0.0585
     24 H           2.2532   -1.2142    0.0000 H       1  UNL1        0.0351
     25 H           2.6550   -1.9040    0.0000 H       1  UNL1        0.0351
     26 H           4.2273   -2.3920    0.0000 H       1  UNL1        0.0241
     27 H           4.9456   -2.8948    0.0000 H       1  UNL1        0.0241
     28 H           5.4484   -2.1765    0.0000 H       1  UNL1        0.0241
     29 H           5.5301   -2.4195    0.0000 H       1  UNL1        0.0581
     30 H           3.5429   -2.9886    0.0000 H       1  UNL1        0.0235
     31 H           4.3418   -3.3499    0.0000 H       1  UNL1        0.0235
     32 H           4.7031   -2.5510    0.0000 H       1  UNL1        0.0235
     33 H           2.7397   -2.4021    0.0000 H       1  UNL1        0.0235
     34 H           2.9764   -3.2464    0.0000 H       1  UNL1        0.0235
     35 H           3.8207   -3.0096    0.0000 H       1  UNL1        0.0235
     36 H           3.7773    0.8552    0.0000 H       1  UNL1        0.0655
     37 H           6.9331   -1.6095    0.0000 H       1  UNL1        0.0621
     38 H           7.8395   -0.1088    0.0000 H       1  UNL1        0.0628
     39 H           8.7203    2.0536    0.0000 H       1  UNL1        0.0345
     40 H           8.7342    0.7066    0.0000 H       1  UNL1        0.0235
     41 H           9.5820    0.9302    0.0000 H       1  UNL1        0.0235
     42 H           9.3583    1.7780    0.0000 H       1  UNL1        0.0235
     43 H           8.8060    2.7433    0.0000 H       1  UNL1        0.0235
     44 H           8.1884    3.3656    0.0000 H       1  UNL1        0.0235
     45 H           7.5660    2.7480    0.0000 H       1  UNL1        0.0235
@<TRIPOS>BOND
     1     1    14    2
     2     2    17    2
     3     3    20    2
     4     4     5    1
     5     4     6    1
     6     4     8    1
     7     4    11    1
     8     5     7    1
     9     5     9    1
    10     5    10    1
    11     6    12    1
    12     6    13    2
    13     7    14    1
    14     7    24    1
    15     7    25    1
    16     8    26    1
    17     8    27    1
    18     8    28    1
    19     9    33    1
    20     9    34    1
    21     9    35    1
    22    10    30    1
    23    10    31    1
    24    10    32    1
    25    11    16    2
    26    11    29    1
    27    12    15    2
    28    12    17    1
    29    13    14    1
    30    13    36    1
    31    15    16    1
    32    15    18    1
    33    16    37    1
    34    17    20    1
    35    18    19    2
    36    18    38    1
    37    19    20    1
    38    19    21    1
    39    21    22    1
    40    21    23    1
    41    21    39    1
    42    22    40    1
    43    22    41    1
    44    22    42    1
    45    23    43    1
    46    23    44    1
    47    23    45    1
