@<TRIPOS>MOLECULE
IMPHY016940
 29 28 0 0 0
SMALL
GASTEIGER

@<TRIPOS>ATOM
      1 O           2.0000    0.7500    0.0000 O.2     1  UNL1       -0.3010
      2 C           4.5981    0.2500    0.0000 C.3     1  UNL1       -0.0375
      3 C           5.4641    0.7500    0.0000 C.3     1  UNL1       -0.0498
      4 C           6.3301    0.2500    0.0000 C.3     1  UNL1       -0.0491
      5 C           3.7320    0.7500    0.0000 C.3     1  UNL1        0.0054
      6 C           7.1962    0.7500    0.0000 C.3     1  UNL1       -0.0322
      7 C           4.5981   -0.7500    0.0000 C.3     1  UNL1       -0.0620
      8 C           8.0622    0.2500    0.0000 C.2     1  UNL1       -0.0797
      9 C           2.8660    0.2500    0.0000 C.2     1  UNL1        0.1206
     10 C           8.9282    0.7500    0.0000 C.3     1  UNL1       -0.0440
     11 C           8.0622   -0.7500    0.0000 C.2     1  UNL1       -0.0997
     12 H           5.3342   -0.1750    0.0000 H       1  UNL1        0.0302
     13 H           5.8626    1.2250    0.0000 H       1  UNL1        0.0268
     14 H           5.0656    1.2250    0.0000 H       1  UNL1        0.0268
     15 H           5.9316   -0.2249    0.0000 H       1  UNL1        0.0268
     16 H           6.7287   -0.2249    0.0000 H       1  UNL1        0.0268
     17 H           4.1306    1.2250    0.0000 H       1  UNL1        0.0341
     18 H           3.3335    1.2250    0.0000 H       1  UNL1        0.0341
     19 H           7.5947    1.2250    0.0000 H       1  UNL1        0.0310
     20 H           6.7976    1.2250    0.0000 H       1  UNL1        0.0310
     21 H           3.9781   -0.7500    0.0000 H       1  UNL1        0.0233
     22 H           4.5981   -1.3700    0.0000 H       1  UNL1        0.0233
     23 H           5.2181   -0.7500    0.0000 H       1  UNL1        0.0233
     24 H           2.8660   -0.3700    0.0000 H       1  UNL1        0.1026
     25 H           9.2382    0.2131    0.0000 H       1  UNL1        0.0274
     26 H           9.4651    1.0600    0.0000 H       1  UNL1        0.0274
     27 H           8.6182    1.2869    0.0000 H       1  UNL1        0.0274
     28 H           7.5252   -1.0600    0.0000 H       1  UNL1        0.0534
     29 H           8.5991   -1.0600    0.0000 H       1  UNL1        0.0534
@<TRIPOS>BOND
     1     1     9    2
     2     2     3    1
     3     2     5    1
     4     2     7    1
     5     2    12    1
     6     3     4    1
     7     3    13    1
     8     3    14    1
     9     4     6    1
    10     4    15    1
    11     4    16    1
    12     5     9    1
    13     5    17    1
    14     5    18    1
    15     6     8    1
    16     6    19    1
    17     6    20    1
    18     7    21    1
    19     7    22    1
    20     7    23    1
    21     8    10    1
    22     8    11    2
    23     9    24    1
    24    10    25    1
    25    10    26    1
    26    10    27    1
    27    11    28    1
    28    11    29    1
