@<TRIPOS>MOLECULE
IMPHY001920
 23 24 0 0 0
SMALL
GASTEIGER

@<TRIPOS>ATOM
      1 O           3.7320   -1.7673    0.0000 O.2     1  UNL1       -0.2923
      2 C           3.7320    0.2327    0.0000 C.ar    1  UNL1       -0.0074
      3 C           3.7320    1.2327    0.0000 C.ar    1  UNL1       -0.0172
      4 C           2.8660   -0.2673    0.0000 C.ar    1  UNL1        0.0248
      5 C           4.6260   -0.3020    0.0000 C.ar    1  UNL1       -0.0534
      6 C           2.8660    1.7327    0.0000 C.ar    1  UNL1       -0.0540
      7 C           2.0000    0.2327    0.0000 C.ar    1  UNL1       -0.0507
      8 C           4.6260    1.7673    0.0000 C.ar    1  UNL1       -0.0540
      9 C           2.0000    1.2327    0.0000 C.ar    1  UNL1       -0.0605
     10 C           2.8660   -1.2673    0.0000 C.2     1  UNL1        0.1607
     11 C           5.5321    0.2119    0.0000 C.ar    1  UNL1       -0.0611
     12 C           5.5321    1.2535    0.0000 C.ar    1  UNL1       -0.0612
     13 C           2.0000   -1.7673    0.0000 C.3     1  UNL1       -0.0014
     14 H           4.6188   -0.9220    0.0000 H       1  UNL1        0.0624
     15 H           2.8660    2.3527    0.0000 H       1  UNL1        0.0624
     16 H           1.4631   -0.0773    0.0000 H       1  UNL1        0.0625
     17 H           4.6188    2.3873    0.0000 H       1  UNL1        0.0624
     18 H           1.4631    1.5427    0.0000 H       1  UNL1        0.0618
     19 H           6.0678   -0.1002    0.0000 H       1  UNL1        0.0618
     20 H           6.0678    1.5656    0.0000 H       1  UNL1        0.0618
     21 H           1.6900   -1.2304    0.0000 H       1  UNL1        0.0309
     22 H           1.4631   -2.0773    0.0000 H       1  UNL1        0.0309
     23 H           2.3100   -2.3043    0.0000 H       1  UNL1        0.0309
@<TRIPOS>BOND
     1     1    10    2
     2     2     3   ar
     3     2     4   ar
     4     2     5   ar
     5     3     6   ar
     6     3     8   ar
     7     4     7   ar
     8     4    10    1
     9     5    11   ar
    10     5    14    1
    11     6     9   ar
    12     6    15    1
    13     7     9   ar
    14     7    16    1
    15     8    12   ar
    16     8    17    1
    17     9    18    1
    18    10    13    1
    19    11    12   ar
    20    11    19    1
    21    12    20    1
    22    13    21    1
    23    13    22    1
    24    13    23    1
