@<TRIPOS>MOLECULE
IMPHY005542
 50 51 0 0 0
SMALL
GASTEIGER

@<TRIPOS>ATOM
      1 O           5.5329   -1.2287    0.0000 O.3     1  UNL1       -0.4565
      2 O          10.4216   -0.5023    0.0000 O.3     1  UNL1       -0.4580
      3 O           4.0329   -0.3627    0.0000 O.2     1  UNL1       -0.2453
      4 O          11.0140    1.1253    0.0000 O.2     1  UNL1       -0.2453
      5 N           7.9096    2.0947    0.0000 N.3     1  UNL1       -0.2956
      6 C           7.4318    0.1462    0.0000 C.3     1  UNL1        0.0508
      7 C           7.1730    1.1121    0.0000 C.3     1  UNL1        0.0173
      8 C           6.0329   -0.3627    0.0000 C.3     1  UNL1        0.1203
      9 C           5.7741    0.6033    0.0000 C.3     1  UNL1        0.0016
     10 C           8.6529   -0.7195    0.0000 C.3     1  UNL1        0.0035
     11 C           9.2062    0.8010    0.0000 C.3     1  UNL1        0.0002
     12 C           9.4819   -0.1603    0.0000 C.3     1  UNL1        0.1064
     13 C           8.4096    2.9607    0.0000 C.3     1  UNL1       -0.0121
     14 C           4.5329   -1.2287    0.0000 C.2     1  UNL1        0.3349
     15 C          11.1876    0.1405    0.0000 C.2     1  UNL1        0.3348
     16 C           4.0329   -2.0947    0.0000 C.2     1  UNL1        0.0293
     17 C          12.1273   -0.2016    0.0000 C.2     1  UNL1        0.0293
     18 C           4.5329   -2.9607    0.0000 C.3     1  UNL1       -0.0333
     19 C           3.0329   -2.0947    0.0000 C.2     1  UNL1       -0.0774
     20 C          12.3010   -1.1864    0.0000 C.3     1  UNL1       -0.0333
     21 C          12.8934    0.4412    0.0000 C.2     1  UNL1       -0.0774
     22 C           2.5329   -2.9607    0.0000 C.3     1  UNL1       -0.0461
     23 C          13.8331    0.0992    0.0000 C.3     1  UNL1       -0.0461
     24 H           7.6518   -0.6749    0.0000 H       1  UNL1        0.0500
     25 H           6.9530    1.9331    0.0000 H       1  UNL1        0.0465
     26 H           6.4314   -0.8376    0.0000 H       1  UNL1        0.0750
     27 H           5.1801    0.4255    0.0000 H       1  UNL1        0.0316
     28 H           5.5791    1.1918    0.0000 H       1  UNL1        0.0316
     29 H           9.0587   -1.1882    0.0000 H       1  UNL1        0.0317
     30 H           8.2362   -1.1786    0.0000 H       1  UNL1        0.0317
     31 H           9.2113    1.4209    0.0000 H       1  UNL1        0.0316
     32 H           9.8206    0.8847    0.0000 H       1  UNL1        0.0316
     33 H           9.5574   -0.7757    0.0000 H       1  UNL1        0.0735
     34 H           7.8727    3.2707    0.0000 H       1  UNL1        0.0391
     35 H           8.7196    3.4977    0.0000 H       1  UNL1        0.0391
     36 H           8.9466    2.6507    0.0000 H       1  UNL1        0.0391
     37 H           5.0698   -2.6507    0.0000 H       1  UNL1        0.0280
     38 H           4.8429   -3.4977    0.0000 H       1  UNL1        0.0280
     39 H           3.9960   -3.2707    0.0000 H       1  UNL1        0.0280
     40 H           2.7229   -1.5578    0.0000 H       1  UNL1        0.0574
     41 H          12.9115   -1.0787    0.0000 H       1  UNL1        0.0280
     42 H          12.4086   -1.7969    0.0000 H       1  UNL1        0.0280
     43 H          11.6904   -1.2940    0.0000 H       1  UNL1        0.0280
     44 H          12.7857    1.0518    0.0000 H       1  UNL1        0.0574
     45 H           3.0698   -3.2707    0.0000 H       1  UNL1        0.0272
     46 H           2.2229   -3.4977    0.0000 H       1  UNL1        0.0272
     47 H           1.9960   -2.6507    0.0000 H       1  UNL1        0.0272
     48 H          14.0451    0.6818    0.0000 H       1  UNL1        0.0272
     49 H          14.4157   -0.1128    0.0000 H       1  UNL1        0.0272
     50 H          13.6210   -0.4834    0.0000 H       1  UNL1        0.0272
@<TRIPOS>BOND
     1     8     1    1
     2     1    14    1
     3    12     2    1
     4     2    15    1
     5     3    14    2
     6     4    15    2
     7     5     6    1
     8     5     7    1
     9     5    13    1
    10     6     8    1
    11     6    10    1
    12     6    24    1
    13     7     9    1
    14     7    11    1
    15     7    25    1
    16     8     9    1
    17     8    26    1
    18     9    27    1
    19     9    28    1
    20    10    12    1
    21    10    29    1
    22    10    30    1
    23    11    12    1
    24    11    31    1
    25    11    32    1
    26    12    33    1
    27    13    34    1
    28    13    35    1
    29    13    36    1
    30    14    16    1
    31    15    17    1
    32    16    18    1
    33    16    19    2
    34    17    20    1
    35    17    21    2
    36    18    37    1
    37    18    38    1
    38    18    39    1
    39    19    22    1
    40    19    40    1
    41    20    41    1
    42    20    42    1
    43    20    43    1
    44    21    23    1
    45    21    44    1
    46    22    45    1
    47    22    46    1
    48    22    47    1
    49    23    48    1
    50    23    49    1
    51    23    50    1
