@<TRIPOS>MOLECULE
IMPHY007085
 27 27 0 0 0
SMALL
GASTEIGER

@<TRIPOS>ATOM
      1 O           3.4030    0.3450    0.0000 O.2     1  UNL1       -0.2919
      2 O           6.0010    2.8450    0.0000 O.3     1  UNL1       -0.4795
      3 OXT         6.8671    1.3450    0.0000 O.2     1  UNL1       -0.2492
      4 N           4.2690    1.8450    0.0000 N.3     1  UNL1       -0.3181
      5 N           2.5369   -1.1550    0.0000 N.pl3   1  UNL1       -0.3574
      6 C           5.1350    0.3450    0.0000 C.3     1  UNL1        0.0361
      7 CA          5.1350    1.3450    0.0000 C.3     1  UNL1        0.1103
      8 C           4.2690   -0.1550    0.0000 C.2     1  UNL1        0.1669
      9 C           4.2690   -1.1550    0.0000 C.ar    1  UNL1        0.0381
     10 C           3.4030   -1.6550    0.0000 C.ar    1  UNL1        0.0351
     11 C           5.1350   -1.6550    0.0000 C.ar    1  UNL1       -0.0495
     12 C           6.0010    1.8450    0.0000 C.2     1  UNL1        0.3221
     13 C           3.4030   -2.6550    0.0000 C.ar    1  UNL1       -0.0404
     14 C           5.1350   -2.6550    0.0000 C.ar    1  UNL1       -0.0610
     15 C           4.2690   -3.1550    0.0000 C.ar    1  UNL1       -0.0600
     16 H           5.3471   -0.2376    0.0000 H       1  UNL1        0.0366
     17 H           5.7456    0.4527    0.0000 H       1  UNL1        0.0366
     18 HA          5.1350    1.9650    0.0000 H       1  UNL1        0.0578
     19 H           5.6720   -1.3450    0.0000 H       1  UNL1        0.0625
     20 H1          4.2690    2.4650    0.0000 H       1  UNL1        0.1190
     21 H2          3.7320    1.5350    0.0000 H       1  UNL1        0.1190
     22 H           2.8660   -2.9650    0.0000 H       1  UNL1        0.0636
     23 H           5.6720   -2.9650    0.0000 H       1  UNL1        0.0618
     24 H           4.2690   -3.7750    0.0000 H       1  UNL1        0.0618
     25 H           2.0000   -1.4650    0.0000 H       1  UNL1        0.1423
     26 H           2.5369   -0.5350    0.0000 H       1  UNL1        0.1423
     27 H           6.5380    3.1550    0.0000 H       1  UNL1        0.2951
@<TRIPOS>BOND
     1     1     8    2
     2     2    12    1
     3     2    27    1
     4     3    12    2
     5     4     7    1
     6     4    20    1
     7     4    21    1
     8     5    10    1
     9     5    25    1
    10     5    26    1
    11     6     7    1
    12     6     8    1
    13     6    16    1
    14     6    17    1
    15     7    12    1
    16     7    18    1
    17     8     9    1
    18     9    10   ar
    19     9    11   ar
    20    10    13   ar
    21    11    14   ar
    22    11    19    1
    23    13    15   ar
    24    13    22    1
    25    14    15   ar
    26    14    23    1
    27    15    24    1
