@<TRIPOS>MOLECULE
IMPHY017645
 40 41 0 0 0
SMALL
GASTEIGER

@<TRIPOS>ATOM
      1 O           2.0000    1.2550    0.0000 O.3     1  UNL1       -0.3834
      2 C           5.4920   -0.7797    0.0000 C.3     1  UNL1       -0.0287
      3 C           4.5981   -0.2450    0.0000 C.3     1  UNL1        0.0019
      4 C           6.3981   -0.2658    0.0000 C.3     1  UNL1       -0.0486
      5 C           5.4920    1.2896    0.0000 C.3     1  UNL1       -0.0221
      6 C           4.5981    0.7550    0.0000 C.2     1  UNL1       -0.0608
      7 C           6.3981    0.7758    0.0000 C.3     1  UNL1       -0.0465
      8 C           5.4804   -1.7796    0.0000 C.3     1  UNL1       -0.0431
      9 C           3.7320   -0.7450    0.0000 C.2     1  UNL1       -0.0749
     10 C           3.7320    1.2550    0.0000 C.2     1  UNL1       -0.0518
     11 C           2.8660    0.7550    0.0000 C.3     1  UNL1        0.0945
     12 C           5.4804    2.2896    0.0000 C.3     1  UNL1       -0.0587
     13 C           2.8660   -0.2450    0.0000 C.2     1  UNL1       -0.0441
     14 C           6.3406   -2.2896    0.0000 C.3     1  UNL1       -0.0624
     15 C           4.6087   -2.2696    0.0000 C.3     1  UNL1       -0.0624
     16 C           2.0000   -0.7450    0.0000 C.3     1  UNL1       -0.0411
     17 H           6.0259   -1.0948    0.0000 H       1  UNL1        0.0312
     18 H           4.5933   -0.8650    0.0000 H       1  UNL1        0.0391
     19 H           6.6071   -0.8495    0.0000 H       1  UNL1        0.0268
     20 H           7.0089   -0.1597    0.0000 H       1  UNL1        0.0268
     21 H           4.9510    1.5924    0.0000 H       1  UNL1        0.0343
     22 H           7.0089    0.6697    0.0000 H       1  UNL1        0.0271
     23 H           6.6071    1.3595    0.0000 H       1  UNL1        0.0271
     24 H           6.0209   -1.4758    0.0000 H       1  UNL1        0.0298
     25 H           3.7320   -1.3650    0.0000 H       1  UNL1        0.0578
     26 H           3.7320    1.8750    0.0000 H       1  UNL1        0.0601
     27 H           2.8660    1.3750    0.0000 H       1  UNL1        0.0685
     28 H           6.1004    2.2968    0.0000 H       1  UNL1        0.0235
     29 H           5.4733    2.9095    0.0000 H       1  UNL1        0.0235
     30 H           4.8605    2.2824    0.0000 H       1  UNL1        0.0235
     31 H           6.0244   -2.8229    0.0000 H       1  UNL1        0.0232
     32 H           6.8740   -2.6058    0.0000 H       1  UNL1        0.0232
     33 H           6.6568   -1.7563    0.0000 H       1  UNL1        0.0232
     34 H           4.3049   -1.7291    0.0000 H       1  UNL1        0.0232
     35 H           4.0682   -2.5733    0.0000 H       1  UNL1        0.0232
     36 H           4.9125   -2.8100    0.0000 H       1  UNL1        0.0232
     37 H           1.6900   -0.2081    0.0000 H       1  UNL1        0.0275
     38 H           1.4631   -1.0550    0.0000 H       1  UNL1        0.0275
     39 H           2.3100   -1.2820    0.0000 H       1  UNL1        0.0275
     40 H           2.0000    1.8750    0.0000 H       1  UNL1        0.2107
@<TRIPOS>BOND
     1     1    11    1
     2     1    40    1
     3     2     3    1
     4     2     4    1
     5     2     8    1
     6     2    17    1
     7     3     6    1
     8     3     9    1
     9     3    18    1
    10     4     7    1
    11     4    19    1
    12     4    20    1
    13     5     6    1
    14     5     7    1
    15     5    12    1
    16     5    21    1
    17     6    10    2
    18     7    22    1
    19     7    23    1
    20     8    14    1
    21     8    15    1
    22     8    24    1
    23     9    13    2
    24     9    25    1
    25    10    11    1
    26    10    26    1
    27    11    13    1
    28    11    27    1
    29    12    28    1
    30    12    29    1
    31    12    30    1
    32    13    16    1
    33    14    31    1
    34    14    32    1
    35    14    33    1
    36    15    34    1
    37    15    35    1
    38    15    36    1
    39    16    37    1
    40    16    38    1
    41    16    39    1
