@<TRIPOS>MOLECULE
IMPHY005799
 48 50 0 0 0
SMALL
GASTEIGER

@<TRIPOS>ATOM
      1 O           3.7281   -0.7851    0.0000 O.3     1  UNL1       -0.4535
      2 O           2.0000   -1.1688    0.0000 O.2     1  UNL1       -0.2508
      3 O           6.8014   -1.7575    0.0000 O.2     1  UNL1       -0.5030
      4 O           8.7633   -1.1688    0.0000 O.2     1  UNL1       -0.2837
      5 C           3.2677    1.2323    0.0000 C.3     1  UNL1        0.0001
      6 C           4.4807   -0.0650    0.0000 C.3     1  UNL1        0.1366
      7 C           4.2582    0.9100    0.0000 C.2     1  UNL1       -0.0203
      8 C           5.3816   -0.4989    0.0000 C.3     1  UNL1        0.0203
      9 C           2.4986    0.5297    0.0000 C.3     1  UNL1        0.0539
     10 C           2.5960    1.9732    0.0000 C.3     1  UNL1       -0.0555
     11 C           3.5735    2.1844    0.0000 C.3     1  UNL1       -0.0555
     12 C           4.7032   -1.0399    0.0000 C.3     1  UNL1       -0.0205
     13 C           6.2826   -0.0650    0.0000 C.2     1  UNL1        0.0091
     14 C           4.8817    1.6918    0.0000 C.2     1  UNL1       -0.0577
     15 C           2.7304   -0.4858    0.0000 C.2     1  UNL1        0.3087
     16 C           6.5052    0.9099    0.0000 C.2     1  UNL1       -0.0178
     17 C           5.8817    1.6918    0.0000 C.2     1  UNL1       -0.0541
     18 C           7.0352   -0.7852    0.0000 C.2     1  UNL1        0.1678
     19 C           7.4956    1.2323    0.0000 C.2     1  UNL1       -0.0470
     20 C           8.2646    0.5297    0.0000 C.2     1  UNL1        0.0061
     21 C           8.0329   -0.4858    0.0000 C.2     1  UNL1        0.2237
     22 C           9.2191    0.8281    0.0000 C.3     1  UNL1       -0.0178
     23 C           9.4378    1.8039    0.0000 C.3     1  UNL1       -0.0585
     24 C           9.9548    0.1508    0.0000 C.3     1  UNL1       -0.0585
     25 H           4.9951   -0.9836    0.0000 H       1  UNL1        0.0357
     26 H           5.7682   -0.9836    0.0000 H       1  UNL1        0.0357
     27 H           2.1650    1.0523    0.0000 H       1  UNL1        0.0386
     28 H           1.9267    0.2904    0.0000 H       1  UNL1        0.0386
     29 H           3.0554    2.3896    0.0000 H       1  UNL1        0.0238
     30 H           2.1796    2.4325    0.0000 H       1  UNL1        0.0238
     31 H           2.1367    1.5568    0.0000 H       1  UNL1        0.0238
     32 H           4.1638    1.9948    0.0000 H       1  UNL1        0.0238
     33 H           3.7630    2.7747    0.0000 H       1  UNL1        0.0238
     34 H           2.9832    2.3740    0.0000 H       1  UNL1        0.0238
     35 H           4.0987   -1.1779    0.0000 H       1  UNL1        0.0271
     36 H           4.8412   -1.6444    0.0000 H       1  UNL1        0.0271
     37 H           5.3076   -0.9019    0.0000 H       1  UNL1        0.0271
     38 H           4.6127    2.2504    0.0000 H       1  UNL1        0.0619
     39 H           6.1507    2.2504    0.0000 H       1  UNL1        0.0624
     40 H           7.6266    1.8383    0.0000 H       1  UNL1        0.0628
     41 H           9.8108    1.0131    0.0000 H       1  UNL1        0.0345
     42 H          10.0428    1.6682    0.0000 H       1  UNL1        0.0235
     43 H           9.5735    2.4089    0.0000 H       1  UNL1        0.0235
     44 H           8.8329    1.9395    0.0000 H       1  UNL1        0.0235
     45 H           9.5348   -0.3054    0.0000 H       1  UNL1        0.0235
     46 H          10.4109   -0.2692    0.0000 H       1  UNL1        0.0235
     47 H          10.3747    0.6069    0.0000 H       1  UNL1        0.0235
     48 H           7.2510   -2.1844    0.0000 H       1  UNL1        0.2923
@<TRIPOS>BOND
     1     1     6    1
     2     1    15    1
     3     2    15    2
     4     3    18    1
     5     3    48    1
     6     4    21    2
     7     5     7    1
     8     5     9    1
     9     5    10    1
    10     5    11    1
    11     6     7    1
    12     6     8    1
    13     6    12    1
    14     7    14    2
    15     8    13    1
    16     8    25    1
    17     8    26    1
    18     9    15    1
    19     9    27    1
    20     9    28    1
    21    10    29    1
    22    10    30    1
    23    10    31    1
    24    11    32    1
    25    11    33    1
    26    11    34    1
    27    12    35    1
    28    12    36    1
    29    12    37    1
    30    13    16    1
    31    13    18    2
    32    14    17    1
    33    14    38    1
    34    16    17    2
    35    16    19    1
    36    17    39    1
    37    18    21    1
    38    19    20    2
    39    19    40    1
    40    20    21    1
    41    20    22    1
    42    22    23    1
    43    22    24    1
    44    22    41    1
    45    23    42    1
    46    23    43    1
    47    23    44    1
    48    24    45    1
    49    24    46    1
    50    24    47    1
