@<TRIPOS>MOLECULE
IMPHY012707
 32 34 0 0 0
SMALL
GASTEIGER

@<TRIPOS>ATOM
      1 O           5.6270    2.1688    0.0000 O.3     1  UNL1       -0.4530
      2 O           2.0000   -1.0039    0.0000 O.2     1  UNL1       -0.2873
      3 O           7.3669    2.5270    0.0000 O.2     1  UNL1       -0.2453
      4 C           5.0772    1.3406    0.0000 C.3     1  UNL1        0.1325
      5 C           4.0772    1.3406    0.0000 C.3     1  UNL1        0.0105
      6 C           5.7007    0.5588    0.0000 C.2     1  UNL1        0.0033
      7 C           3.4538    0.5588    0.0000 C.2     1  UNL1       -0.0575
      8 C           3.6763   -0.4161    0.0000 C.2     1  UNL1        0.0282
      9 C           4.5772   -0.8500    0.0000 C.2     1  UNL1       -0.0109
     10 C           5.4782   -0.4161    0.0000 C.2     1  UNL1       -0.0465
     11 C           6.6305    0.9105    0.0000 C.2     1  UNL1        0.0402
     12 C           4.4413   -1.8347    0.0000 C.2     1  UNL1       -0.0390
     13 C           2.9912   -1.1364    0.0000 C.2     1  UNL1        0.1869
     14 C           6.5851    1.9036    0.0000 C.2     1  UNL1        0.3358
     15 C           2.4788    0.7813    0.0000 C.3     1  UNL1       -0.0427
     16 C           3.4630   -2.0114    0.0000 C.2     1  UNL1       -0.0108
     17 C           7.4660    0.3611    0.0000 C.3     1  UNL1       -0.0326
     18 C           5.1629   -2.5270    0.0000 C.3     1  UNL1       -0.0390
     19 H           4.7842    1.8870    0.0000 H       1  UNL1        0.0789
     20 H           4.2152    1.9451    0.0000 H       1  UNL1        0.0349
     21 H           3.5186    1.6096    0.0000 H       1  UNL1        0.0349
     22 H           5.9630   -0.8027    0.0000 H       1  UNL1        0.0628
     23 H           2.6168    1.3858    0.0000 H       1  UNL1        0.0275
     24 H           1.8744    0.9193    0.0000 H       1  UNL1        0.0275
     25 H           2.3409    0.1769    0.0000 H       1  UNL1        0.0275
     26 H           3.1940   -2.5700    0.0000 H       1  UNL1        0.0659
     27 H           7.1254   -0.1570    0.0000 H       1  UNL1        0.0280
     28 H           7.9841    0.0204    0.0000 H       1  UNL1        0.0280
     29 H           7.8067    0.8791    0.0000 H       1  UNL1        0.0280
     30 H           4.7336   -2.9744    0.0000 H       1  UNL1        0.0278
     31 H           5.6102   -2.9563    0.0000 H       1  UNL1        0.0278
     32 H           5.5921   -2.0797    0.0000 H       1  UNL1        0.0278
@<TRIPOS>BOND
     1     1     4    1
     2     1    14    1
     3     2    13    2
     4     3    14    2
     5     4     5    1
     6     4     6    1
     7     4    19    1
     8     5     7    1
     9     5    20    1
    10     5    21    1
    11     6    10    1
    12     6    11    2
    13     7     8    2
    14     7    15    1
    15     8     9    1
    16     8    13    1
    17     9    10    2
    18     9    12    1
    19    10    22    1
    20    11    14    1
    21    11    17    1
    22    12    16    2
    23    12    18    1
    24    13    16    1
    25    15    23    1
    26    15    24    1
    27    15    25    1
    28    16    26    1
    29    17    27    1
    30    17    28    1
    31    17    29    1
    32    18    30    1
    33    18    31    1
    34    18    32    1
