@<TRIPOS>MOLECULE
IMPHY008615
 47 49 0 0 0
SMALL
GASTEIGER

@<TRIPOS>ATOM
      1 O           2.5381    2.3221    0.0000 O.3     1  UNL1       -0.4914
      2 O           2.5381    0.2738    0.0000 O.3     1  UNL1       -0.5033
      3 O           2.6042   -2.7021    0.0000 O.3     1  UNL1       -0.5068
      4 N           6.9343    0.7979    0.0000 N.4     1  UNL1        0.2449
      5 C           6.0682    0.2979    0.0000 C.3     1  UNL1        0.0107
      6 C           6.9343    1.7979    0.0000 C.3     1  UNL1       -0.0259
      7 C           5.2022    0.7979    0.0000 C.ar    1  UNL1        0.0076
      8 C           6.0682    2.2979    0.0000 C.3     1  UNL1        0.0133
      9 C           6.0682   -0.7021    0.0000 C.3     1  UNL1        0.0200
     10 C           5.2022    1.7979    0.0000 C.ar    1  UNL1       -0.0302
     11 C           7.9343    0.7979    0.0000 C.3     1  UNL1       -0.0409
     12 C           7.4343   -0.0681    0.0000 C.3     1  UNL1       -0.0409
     13 C           4.3083    0.2633    0.0000 C.ar    1  UNL1       -0.0078
     14 C           5.2022   -1.2021    0.0000 C.ar    1  UNL1       -0.0415
     15 C           4.3083    2.3326    0.0000 C.ar    1  UNL1       -0.0125
     16 C           3.4022    0.7771    0.0000 C.ar    1  UNL1        0.1589
     17 C           3.4022    1.8187    0.0000 C.ar    1  UNL1        0.1615
     18 C           4.3362   -0.7021    0.0000 C.ar    1  UNL1       -0.0549
     19 C           5.2022   -2.2021    0.0000 C.ar    1  UNL1       -0.0549
     20 C           3.4702   -1.2021    0.0000 C.ar    1  UNL1       -0.0199
     21 C           4.3362   -2.7021    0.0000 C.ar    1  UNL1       -0.0199
     22 C           3.4702   -2.2021    0.0000 C.ar    1  UNL1        0.1169
     23 C           2.5420    3.3221    0.0000 C.3     1  UNL1        0.0790
     24 H           6.6052   -0.0121    0.0000 H       1  UNL1        0.0908
     25 H           7.5449    1.6903    0.0000 H       1  UNL1        0.0818
     26 H           7.1463    2.3805    0.0000 H       1  UNL1        0.0818
     27 H           6.4668    2.7729    0.0000 H       1  UNL1        0.0365
     28 H           5.6697    2.7729    0.0000 H       1  UNL1        0.0365
     29 H           6.2803   -1.2847    0.0000 H       1  UNL1        0.0372
     30 H           6.6788   -0.5944    0.0000 H       1  UNL1        0.0372
     31 H           7.9343    0.1779    0.0000 H       1  UNL1        0.0778
     32 H           6.8973   -0.3781    0.0000 H       1  UNL1        0.0778
     33 H           7.7443   -0.6050    0.0000 H       1  UNL1        0.0778
     34 H           7.9712    0.2419    0.0000 H       1  UNL1        0.0778
     35 H           8.5543    0.7979    0.0000 H       1  UNL1        0.0778
     36 H           7.9343    1.4179    0.0000 H       1  UNL1        0.0778
     37 H           4.3154   -0.3567    0.0000 H       1  UNL1        0.0660
     38 H           4.3154    2.9526    0.0000 H       1  UNL1        0.0658
     39 H           4.3362   -0.0821    0.0000 H       1  UNL1        0.0621
     40 H           5.7392   -2.5121    0.0000 H       1  UNL1        0.0621
     41 H           2.9332   -0.8921    0.0000 H       1  UNL1        0.0654
     42 H           4.3362   -3.3221    0.0000 H       1  UNL1        0.0654
     43 H           2.0000    0.5817    0.0000 H       1  UNL1        0.2923
     44 H           3.1620    3.3197    0.0000 H       1  UNL1        0.0660
     45 H           2.5444    3.9421    0.0000 H       1  UNL1        0.0660
     46 H           1.9220    3.3245    0.0000 H       1  UNL1        0.0660
     47 H           2.6042   -3.3221    0.0000 H       1  UNL1        0.2921
@<TRIPOS>UNITY_ATOM_ATTR
4 1
charge 1
@<TRIPOS>BOND
     1     1    17    1
     2     1    23    1
     3     2    16    1
     4     2    43    1
     5     3    22    1
     6     3    47    1
     7     4     5    1
     8     4     6    1
     9     4    11    1
    10     4    12    1
    11     5     7    1
    12     5     9    1
    13     5    24    1
    14     6     8    1
    15     6    25    1
    16     6    26    1
    17     7    10   ar
    18     7    13   ar
    19     8    10    1
    20     8    27    1
    21     8    28    1
    22     9    14    1
    23     9    29    1
    24     9    30    1
    25    10    15   ar
    26    11    31    1
    27    11    35    1
    28    11    36    1
    29    12    32    1
    30    12    33    1
    31    12    34    1
    32    13    16   ar
    33    13    37    1
    34    14    18   ar
    35    14    19   ar
    36    15    17   ar
    37    15    38    1
    38    16    17   ar
    39    18    20   ar
    40    18    39    1
    41    19    21   ar
    42    19    40    1
    43    20    22   ar
    44    20    41    1
    45    21    22   ar
    46    21    42    1
    47    23    44    1
    48    23    45    1
    49    23    46    1
