@<TRIPOS>MOLECULE
IMPHY013956
 79 84 0 0 0
SMALL
GASTEIGER

@<TRIPOS>ATOM
      1 O           4.7203   -1.5407    0.0000 O.3     1  UNL1       -0.3815
      2 O           4.2790   -0.7026    0.0000 O.3     1  UNL1       -0.3851
      3 O           5.7966   -1.8714    0.0000 O.3     1  UNL1       -0.3765
      4 O           7.6193    1.8904    0.0000 O.3     1  UNL1       -0.3791
      5 O           3.9028    1.6388    0.0000 O.3     1  UNL1       -0.4608
      6 O           3.5016    2.3483    0.0000 O.3     1  UNL1       -0.3793
      7 O           8.4853   -2.3448    0.0000 O.3     1  UNL1       -0.3824
      8 O           2.9058    0.2225    0.0000 O.2     1  UNL1       -0.2512
      9 N           8.8146    0.0613    0.0000 N.3     1  UNL1       -0.2955
     10 C           6.8679    0.4566    0.0000 C.3     1  UNL1        0.0245
     11 C           6.8679   -0.4110    0.0000 C.3     1  UNL1        0.0068
     12 C           7.8699    0.3505    0.0000 C.3     1  UNL1        0.0529
     13 C           6.1896    0.9975    0.0000 C.3     1  UNL1       -0.0218
     14 C           5.3438   -0.7589    0.0000 C.3     1  UNL1        0.1371
     15 C           5.3438    0.8044    0.0000 C.3     1  UNL1        0.0317
     16 C           4.9674    0.0228    0.0000 C.3     1  UNL1        0.1073
     17 C           6.1896   -0.9519    0.0000 C.3     1  UNL1        0.0952
     18 C           7.6193   -0.8448    0.0000 C.3     1  UNL1        0.0128
     19 C           7.6193    0.8904    0.0000 C.3     1  UNL1        0.0661
     20 C           6.2674    1.8616    0.0000 C.3     1  UNL1       -0.0405
     21 C           5.4696    2.2026    0.0000 C.3     1  UNL1        0.0231
     22 C           4.8988    1.5492    0.0000 C.3     1  UNL1        0.1140
     23 C           4.3225    0.2927    0.0000 C.3     1  UNL1        0.0060
     24 C           8.8146   -0.6906    0.0000 C.3     1  UNL1        0.0074
     25 C           8.3706   -0.4110    0.0000 C.3     1  UNL1       -0.0414
     26 C           4.3225    1.7772    0.0000 C.3     1  UNL1        0.0672
     27 C           8.3706    0.4566    0.0000 C.3     1  UNL1       -0.0254
     28 C           7.6193   -1.8448    0.0000 C.3     1  UNL1        0.0544
     29 C           9.6186    0.6560    0.0000 C.3     1  UNL1       -0.0035
     30 C           6.3964   -2.6716    0.0000 C.3     1  UNL1        0.0369
     31 C          10.5355    0.2571    0.0000 C.3     1  UNL1       -0.0523
     32 C           8.4853    2.3904    0.0000 C.3     1  UNL1        0.0368
     33 C           2.9955    1.2185    0.0000 C.2     1  UNL1        0.3042
     34 C           3.5858    3.3448    0.0000 C.3     1  UNL1        0.0368
     35 C           8.4853   -3.3448    0.0000 C.3     1  UNL1        0.0365
     36 C           2.1778    1.7941    0.0000 C.3     1  UNL1        0.0332
     37 H           6.9314   -1.2586    0.0000 H       1  UNL1        0.0340
     38 H           7.9938    0.9580    0.0000 H       1  UNL1        0.0499
     39 H           6.9712    1.3316    0.0000 H       1  UNL1        0.0312
     40 H           4.4946    0.7663    0.0000 H       1  UNL1        0.0368
     41 H           6.3900   -1.5386    0.0000 H       1  UNL1        0.0629
     42 H           7.0823    1.2004    0.0000 H       1  UNL1        0.0602
     43 H           6.4501    2.4540    0.0000 H       1  UNL1        0.0273
     44 H           6.8757    1.7418    0.0000 H       1  UNL1        0.0273
     45 H           5.4904    3.0523    0.0000 H       1  UNL1        0.0362
     46 H           4.6680    2.1246    0.0000 H       1  UNL1        0.0741
     47 H           4.1605   -0.3058    0.0000 H       1  UNL1        0.0319
     48 H           3.7079    0.3744    0.0000 H       1  UNL1        0.0319
     49 H           9.4340   -0.6640    0.0000 H       1  UNL1        0.0433
     50 H           8.8676   -1.3083    0.0000 H       1  UNL1        0.0433
     51 H           8.9812   -0.3033    0.0000 H       1  UNL1        0.0273
     52 H           8.5826   -0.9936    0.0000 H       1  UNL1        0.0273
     53 H           4.4006    2.3923    0.0000 H       1  UNL1        0.0601
     54 H           8.5827    1.0392    0.0000 H       1  UNL1        0.0290
     55 H           8.9812    0.3489    0.0000 H       1  UNL1        0.0290
     56 H           7.4072   -2.4274    0.0000 H       1  UNL1        0.0566
     57 H           7.0087   -1.7371    0.0000 H       1  UNL1        0.0566
     58 H           4.9468   -2.1178    0.0000 H       1  UNL1        0.2105
     59 H           3.6846   -0.8787    0.0000 H       1  UNL1        0.2103
     60 H           9.1689    1.0829    0.0000 H       1  UNL1        0.0424
     61 H           9.9609    1.1730    0.0000 H       1  UNL1        0.0424
     62 H           6.8925   -2.2997    0.0000 H       1  UNL1        0.0524
     63 H           6.7683   -3.1677    0.0000 H       1  UNL1        0.0524
     64 H           5.9003   -3.0435    0.0000 H       1  UNL1        0.0524
     65 H          10.7829    0.8256    0.0000 H       1  UNL1        0.0242
     66 H          11.1041    0.0098    0.0000 H       1  UNL1        0.0242
     67 H          10.2882   -0.3114    0.0000 H       1  UNL1        0.0242
     68 H           8.1753    2.9273    0.0000 H       1  UNL1        0.0524
     69 H           9.0222    2.7004    0.0000 H       1  UNL1        0.0524
     70 H           8.7953    1.8534    0.0000 H       1  UNL1        0.0524
     71 H           2.9680    3.3970    0.0000 H       1  UNL1        0.0524
     72 H           3.6379    3.9626    0.0000 H       1  UNL1        0.0524
     73 H           4.2036    3.2926    0.0000 H       1  UNL1        0.0524
     74 H           9.1053   -3.3448    0.0000 H       1  UNL1        0.0523
     75 H           8.4853   -3.9648    0.0000 H       1  UNL1        0.0523
     76 H           7.8653   -3.3448    0.0000 H       1  UNL1        0.0523
     77 H           1.8209    1.2871    0.0000 H       1  UNL1        0.0342
     78 H           1.6708    2.1510    0.0000 H       1  UNL1        0.0342
     79 H           2.5346    2.3011    0.0000 H       1  UNL1        0.0342
@<TRIPOS>BOND
     1    14     1    1
     2     1    58    1
     3    16     2    1
     4     2    59    1
     5    17     3    1
     6     3    30    1
     7    19     4    1
     8     4    32    1
     9    22     5    1
    10     5    33    1
    11    26     6    1
    12     6    34    1
    13     7    28    1
    14     7    35    1
    15     8    33    2
    16     9    12    1
    17     9    24    1
    18     9    29    1
    19    10    11    1
    20    10    12    1
    21    10    13    1
    22    10    19    1
    23    11    17    1
    24    11    18    1
    25    11    37    1
    26    12    14    1
    27    12    38    1
    28    13    15    1
    29    13    20    1
    30    13    39    1
    31    14    16    1
    32    14    17    1
    33    15    16    1
    34    15    22    1
    35    15    40    1
    36    16    23    1
    37    17    41    1
    38    18    24    1
    39    18    25    1
    40    18    28    1
    41    19    27    1
    42    19    42    1
    43    20    21    1
    44    20    43    1
    45    20    44    1
    46    21    22    1
    47    21    26    1
    48    21    45    1
    49    22    46    1
    50    23    26    1
    51    23    47    1
    52    23    48    1
    53    24    49    1
    54    24    50    1
    55    25    27    1
    56    25    51    1
    57    25    52    1
    58    26    53    1
    59    27    54    1
    60    27    55    1
    61    28    56    1
    62    28    57    1
    63    29    31    1
    64    29    60    1
    65    29    61    1
    66    30    62    1
    67    30    63    1
    68    30    64    1
    69    31    65    1
    70    31    66    1
    71    31    67    1
    72    32    68    1
    73    32    69    1
    74    32    70    1
    75    33    36    1
    76    34    71    1
    77    34    72    1
    78    34    73    1
    79    35    74    1
    80    35    75    1
    81    35    76    1
    82    36    77    1
    83    36    78    1
    84    36    79    1
