@<TRIPOS>MOLECULE
IMPHY002200
 28 29 0 0 0
SMALL
GASTEIGER

@<TRIPOS>ATOM
      1 O           2.0000   -3.5950    0.0000 O.3     1  UNL1       -0.5068
      2 O           4.5981    3.9050    0.0000 O.3     1  UNL1       -0.5068
      3 C           3.7320   -1.5950    0.0000 C.ar    1  UNL1       -0.0216
      4 C           4.5981    0.9050    0.0000 C.ar    1  UNL1       -0.0248
      5 C           3.7320   -0.5950    0.0000 C.2     1  UNL1       -0.0539
      6 C           4.5981   -0.0950    0.0000 C.2     1  UNL1       -0.0540
      7 C           2.8660   -2.0950    0.0000 C.ar    1  UNL1       -0.0130
      8 C           5.4641    1.4050    0.0000 C.ar    1  UNL1       -0.0511
      9 C           3.7320    1.4050    0.0000 C.ar    1  UNL1       -0.0511
     10 C           4.5981   -2.0950    0.0000 C.ar    1  UNL1       -0.0544
     11 C           2.8660   -3.0950    0.0000 C.ar    1  UNL1        0.1174
     12 C           5.4641    2.4050    0.0000 C.ar    1  UNL1       -0.0196
     13 C           3.7320    2.4050    0.0000 C.ar    1  UNL1       -0.0196
     14 C           4.5981   -3.0950    0.0000 C.ar    1  UNL1       -0.0578
     15 C           4.5981    2.9050    0.0000 C.ar    1  UNL1        0.1169
     16 C           3.7320   -3.5950    0.0000 C.ar    1  UNL1       -0.0201
     17 H           3.1951   -0.2850    0.0000 H       1  UNL1        0.0624
     18 H           5.1350   -0.4050    0.0000 H       1  UNL1        0.0624
     19 H           2.3291   -1.7850    0.0000 H       1  UNL1        0.0660
     20 H           6.0010    1.0950    0.0000 H       1  UNL1        0.0625
     21 H           3.1951    1.0950    0.0000 H       1  UNL1        0.0625
     22 H           5.1350   -1.7850    0.0000 H       1  UNL1        0.0623
     23 H           6.0010    2.7150    0.0000 H       1  UNL1        0.0654
     24 H           3.1951    2.7150    0.0000 H       1  UNL1        0.0654
     25 H           5.1350   -3.4050    0.0000 H       1  UNL1        0.0619
     26 H           3.7320   -4.2150    0.0000 H       1  UNL1        0.0654
     27 H           2.0000   -4.2150    0.0000 H       1  UNL1        0.2921
     28 H           5.1350    4.2150    0.0000 H       1  UNL1        0.2921
@<TRIPOS>BOND
     1     1    11    1
     2     1    27    1
     3     2    15    1
     4     2    28    1
     5     3     5    1
     6     3     7   ar
     7     3    10   ar
     8     4     6    1
     9     4     8   ar
    10     4     9   ar
    11     5     6    2
    12     5    17    1
    13     6    18    1
    14     7    11   ar
    15     7    19    1
    16     8    12   ar
    17     8    20    1
    18     9    13   ar
    19     9    21    1
    20    10    14   ar
    21    10    22    1
    22    11    16   ar
    23    12    15   ar
    24    12    23    1
    25    13    15   ar
    26    13    24    1
    27    14    16   ar
    28    14    25    1
    29    16    26    1
