@<TRIPOS>MOLECULE
IMPHY016838
 38 39 0 0 0
SMALL
GASTEIGER

@<TRIPOS>ATOM
      1 O           5.8978   -0.8760    0.0000 O.3     1  UNL1       -0.3379
      2 O           7.8488   -0.5670    0.0000 O.3     1  UNL1       -0.3646
      3 O           2.3100   -0.0670    0.0000 O.3     1  UNL1       -0.3877
      4 C           5.3100   -0.0670    0.0000 C.3     1  UNL1        0.0989
      5 C           4.8100    0.7990    0.0000 C.3     1  UNL1        0.0008
      6 C           5.8978    0.7420    0.0000 C.3     1  UNL1       -0.0144
      7 C           3.8100    0.7990    0.0000 C.3     1  UNL1       -0.0151
      8 C           4.8100   -0.9330    0.0000 C.2     1  UNL1       -0.0422
      9 C           6.8488    0.4330    0.0000 C.3     1  UNL1        0.0039
     10 C           6.8488   -0.5670    0.0000 C.3     1  UNL1        0.1656
     11 C           3.3100   -0.0670    0.0000 C.3     1  UNL1        0.0743
     12 C           4.8100    1.7990    0.0000 C.3     1  UNL1       -0.0568
     13 C           5.5760    1.4418    0.0000 C.3     1  UNL1       -0.0568
     14 C           3.8100   -0.9330    0.0000 C.2     1  UNL1       -0.0542
     15 C           5.3100   -1.7990    0.0000 C.3     1  UNL1       -0.0410
     16 C           7.1579   -1.5180    0.0000 C.3     1  UNL1       -0.0107
     17 H           6.1500    1.3084    0.0000 H       1  UNL1        0.0298
     18 H           5.3608    1.0520    0.0000 H       1  UNL1        0.0298
     19 H           3.9177    1.4096    0.0000 H       1  UNL1        0.0299
     20 H           3.2274    1.0111    0.0000 H       1  UNL1        0.0299
     21 H           7.4654    0.3682    0.0000 H       1  UNL1        0.0318
     22 H           6.9778    1.0395    0.0000 H       1  UNL1        0.0318
     23 H           3.0000    0.4699    0.0000 H       1  UNL1        0.0638
     24 H           5.4300    1.7990    0.0000 H       1  UNL1        0.0236
     25 H           4.8100    2.4190    0.0000 H       1  UNL1        0.0236
     26 H           4.1900    1.7990    0.0000 H       1  UNL1        0.0236
     27 H           5.9746    0.9669    0.0000 H       1  UNL1        0.0236
     28 H           6.0510    1.8404    0.0000 H       1  UNL1        0.0236
     29 H           5.1775    1.9168    0.0000 H       1  UNL1        0.0236
     30 H           3.5000   -1.4700    0.0000 H       1  UNL1        0.0598
     31 H           4.7731   -2.1090    0.0000 H       1  UNL1        0.0275
     32 H           5.6200   -2.3360    0.0000 H       1  UNL1        0.0275
     33 H           5.8469   -1.4890    0.0000 H       1  UNL1        0.0275
     34 H           6.5682   -1.7096    0.0000 H       1  UNL1        0.0281
     35 H           7.3494   -2.1077    0.0000 H       1  UNL1        0.0281
     36 H           7.7475   -1.3264    0.0000 H       1  UNL1        0.0281
     37 H           8.1588   -0.0301    0.0000 H       1  UNL1        0.2127
     38 H           2.0000   -0.6039    0.0000 H       1  UNL1        0.2102
@<TRIPOS>BOND
     1     1     4    1
     2     1    10    1
     3     2    10    1
     4     2    37    1
     5     3    11    1
     6     3    38    1
     7     4     5    1
     8     4     6    1
     9     4     8    1
    10     5     7    1
    11     5    12    1
    12     5    13    1
    13     6     9    1
    14     6    17    1
    15     6    18    1
    16     7    11    1
    17     7    19    1
    18     7    20    1
    19     8    14    2
    20     8    15    1
    21     9    10    1
    22     9    21    1
    23     9    22    1
    24    10    16    1
    25    11    14    1
    26    11    23    1
    27    12    24    1
    28    12    25    1
    29    12    26    1
    30    13    27    1
    31    13    28    1
    32    13    29    1
    33    14    30    1
    34    15    31    1
    35    15    32    1
    36    15    33    1
    37    16    34    1
    38    16    35    1
    39    16    36    1
