@<TRIPOS>MOLECULE
IMPHY009528
 62 64 0 0 0
SMALL
GASTEIGER

@<TRIPOS>ATOM
      1 O           6.4421    0.3666    0.0000 O.3     1  UNL1       -0.3586
      2 O           4.6660   -2.6402    0.0000 O.3     1  UNL1       -0.3877
      3 O           6.3981   -1.6402    0.0000 O.3     1  UNL1       -0.4560
      4 O           2.9176    1.3944    0.0000 O.3     1  UNL1       -0.3912
      5 O           3.7782    1.8912    0.0000 O.2     1  UNL1       -0.2969
      6 O           5.5321   -3.1402    0.0000 O.2     1  UNL1       -0.2512
      7 C           3.8000   -0.1402    0.0000 C.3     1  UNL1        0.0119
      8 C           3.8000   -1.1402    0.0000 C.3     1  UNL1        0.0022
      9 C           4.6660    0.3598    0.0000 C.3     1  UNL1        0.0580
     10 C           2.9061   -1.6749    0.0000 C.3     1  UNL1       -0.0289
     11 C           5.5321   -0.1402    0.0000 C.3     1  UNL1        0.1170
     12 C           4.6660   -1.6402    0.0000 C.3     1  UNL1        0.0987
     13 C           2.9061    0.3944    0.0000 C.3     1  UNL1        0.0617
     14 C           5.5321   -1.1402    0.0000 C.3     1  UNL1        0.1581
     15 C           2.0000   -1.1611    0.0000 C.3     1  UNL1       -0.0452
     16 C           2.0000   -0.1194    0.0000 C.3     1  UNL1       -0.0258
     17 C           3.8000    0.8598    0.0000 C.3     1  UNL1       -0.0561
     18 C           4.6500    1.4013    0.0000 C.2     1  UNL1        0.1429
     19 C           2.4161   -2.5466    0.0000 C.3     1  UNL1       -0.0595
     20 C           3.4160   -2.5351    0.0000 C.3     1  UNL1       -0.0595
     21 C           6.3981   -0.6402    0.0000 C.3     1  UNL1       -0.0315
     22 C           6.4501    1.4082    0.0000 C.3     1  UNL1        0.0921
     23 C           5.5480    1.9290    0.0000 C.3     1  UNL1        0.0387
     24 C           7.4501    1.4044    0.0000 C.3     1  UNL1       -0.0318
     25 C           6.9534    2.2723    0.0000 C.2     1  UNL1       -0.0595
     26 C           6.3981   -2.6402    0.0000 C.2     1  UNL1        0.3044
     27 C           6.4568    3.1402    0.0000 C.2     1  UNL1       -0.0999
     28 C           7.2641   -3.1402    0.0000 C.3     1  UNL1        0.0332
     29 H           4.5361   -0.7152    0.0000 H       1  UNL1        0.0338
     30 H           5.3989    0.7904    0.0000 H       1  UNL1        0.0413
     31 H           4.1291   -1.9502    0.0000 H       1  UNL1        0.0634
     32 H           2.3721    0.7096    0.0000 H       1  UNL1        0.0599
     33 H           5.5321   -1.7602    0.0000 H       1  UNL1        0.0790
     34 H           1.3891   -1.0550    0.0000 H       1  UNL1        0.0271
     35 H           1.7909   -1.7448    0.0000 H       1  UNL1        0.0271
     36 H           1.7909    0.4643    0.0000 H       1  UNL1        0.0290
     37 H           1.3891   -0.2255    0.0000 H       1  UNL1        0.0290
     38 H           4.4200    0.8598    0.0000 H       1  UNL1        0.0236
     39 H           3.8000    1.4798    0.0000 H       1  UNL1        0.0236
     40 H           3.1800    0.8598    0.0000 H       1  UNL1        0.0236
     41 H           1.8756   -2.2429    0.0000 H       1  UNL1        0.0235
     42 H           2.1123   -3.0871    0.0000 H       1  UNL1        0.0235
     43 H           2.9566   -2.8504    0.0000 H       1  UNL1        0.0235
     44 H           2.8827   -2.8513    0.0000 H       1  UNL1        0.0235
     45 H           3.7322   -3.0684    0.0000 H       1  UNL1        0.0235
     46 H           3.9494   -2.2189    0.0000 H       1  UNL1        0.0235
     47 H           6.0881   -1.1772    0.0000 H       1  UNL1        0.0259
     48 H           6.9350   -0.9502    0.0000 H       1  UNL1        0.0259
     49 H           6.7081   -0.1033    0.0000 H       1  UNL1        0.0259
     50 H           5.9453    2.4050    0.0000 H       1  UNL1        0.0373
     51 H           5.1470    2.4019    0.0000 H       1  UNL1        0.0373
     52 H           4.1291   -2.9502    0.0000 H       1  UNL1        0.2100
     53 H           2.3843    1.7105    0.0000 H       1  UNL1        0.2098
     54 H           7.4477    0.7844    0.0000 H       1  UNL1        0.0261
     55 H           8.0701    1.4020    0.0000 H       1  UNL1        0.0261
     56 H           7.4525    2.0243    0.0000 H       1  UNL1        0.0261
     57 H           7.5734    2.2699    0.0000 H       1  UNL1        0.0595
     58 H           6.7688    3.6760    0.0000 H       1  UNL1        0.0533
     59 H           5.8368    3.1426    0.0000 H       1  UNL1        0.0533
     60 H           6.9541   -3.6772    0.0000 H       1  UNL1        0.0342
     61 H           7.8010   -3.4502    0.0000 H       1  UNL1        0.0342
     62 H           7.5741   -2.6033    0.0000 H       1  UNL1        0.0342
@<TRIPOS>BOND
     1     1    11    1
     2     1    22    1
     3    12     2    1
     4     2    52    1
     5    14     3    1
     6     3    26    1
     7    13     4    1
     8     4    53    1
     9     5    18    2
    10     6    26    2
    11     7     8    1
    12     7     9    1
    13     7    13    1
    14     7    17    1
    15     8    10    1
    16     8    12    1
    17     8    29    1
    18     9    11    1
    19     9    18    1
    20     9    30    1
    21    10    15    1
    22    10    19    1
    23    10    20    1
    24    11    14    1
    25    11    21    1
    26    12    14    1
    27    12    31    1
    28    13    16    1
    29    13    32    1
    30    14    33    1
    31    15    16    1
    32    15    34    1
    33    15    35    1
    34    16    36    1
    35    16    37    1
    36    17    38    1
    37    17    39    1
    38    17    40    1
    39    18    23    1
    40    19    41    1
    41    19    42    1
    42    19    43    1
    43    20    44    1
    44    20    45    1
    45    20    46    1
    46    21    47    1
    47    21    48    1
    48    21    49    1
    49    22    23    1
    50    22    24    1
    51    22    25    1
    52    23    50    1
    53    23    51    1
    54    24    54    1
    55    24    55    1
    56    24    56    1
    57    25    27    2
    58    25    57    1
    59    26    28    1
    60    27    58    1
    61    27    59    1
    62    28    60    1
    63    28    61    1
    64    28    62    1
