@<TRIPOS>MOLECULE
IMPHY006983
 28 28 0 0 0
SMALL
GASTEIGER

@<TRIPOS>ATOM
      1 O           2.8660    1.0000    0.0000 O.2     1  UNL1       -0.2976
      2 N           5.4641   -0.5000    0.0000 N.3     1  UNL1       -0.3020
      3 C           4.5981   -0.0000    0.0000 C.3     1  UNL1        0.0168
      4 C           4.5981    1.0000    0.0000 C.3     1  UNL1       -0.0369
      5 C           5.4641    1.5000    0.0000 C.3     1  UNL1       -0.0505
      6 C           6.3301    0.0000    0.0000 C.3     1  UNL1       -0.0011
      7 C           6.3301    1.0000    0.0000 C.3     1  UNL1       -0.0402
      8 C           3.7320   -0.5000    0.0000 C.3     1  UNL1        0.0212
      9 C           5.4641   -1.5000    0.0000 C.3     1  UNL1       -0.0125
     10 C           2.8660   -0.0000    0.0000 C.2     1  UNL1        0.1318
     11 C           2.0000   -0.5000    0.0000 C.3     1  UNL1       -0.0060
     12 H           4.5981   -0.6200    0.0000 H       1  UNL1        0.0466
     13 H           4.3860    1.5826    0.0000 H       1  UNL1        0.0280
     14 H           3.9875    0.8923    0.0000 H       1  UNL1        0.0280
     15 H           5.8626    1.9750    0.0000 H       1  UNL1        0.0266
     16 H           5.0656    1.9750    0.0000 H       1  UNL1        0.0266
     17 H           6.5422   -0.5826    0.0000 H       1  UNL1        0.0426
     18 H           6.9407    0.1077    0.0000 H       1  UNL1        0.0426
     19 H           6.9407    0.8923    0.0000 H       1  UNL1        0.0278
     20 H           6.5422    1.5826    0.0000 H       1  UNL1        0.0278
     21 H           3.3335   -0.9749    0.0000 H       1  UNL1        0.0357
     22 H           4.1306   -0.9749    0.0000 H       1  UNL1        0.0357
     23 H           4.8441   -1.5000    0.0000 H       1  UNL1        0.0391
     24 H           5.4641   -2.1200    0.0000 H       1  UNL1        0.0391
     25 H           6.0841   -1.5000    0.0000 H       1  UNL1        0.0391
     26 H           1.6900    0.0369    0.0000 H       1  UNL1        0.0306
     27 H           1.4631   -0.8100    0.0000 H       1  UNL1        0.0306
     28 H           2.3100   -1.0369    0.0000 H       1  UNL1        0.0306
@<TRIPOS>BOND
     1     1    10    2
     2     2     3    1
     3     2     6    1
     4     2     9    1
     5     3     4    1
     6     3     8    1
     7     3    12    1
     8     4     5    1
     9     4    13    1
    10     4    14    1
    11     5     7    1
    12     5    15    1
    13     5    16    1
    14     6     7    1
    15     6    17    1
    16     6    18    1
    17     7    19    1
    18     7    20    1
    19     8    10    1
    20     8    21    1
    21     8    22    1
    22     9    23    1
    23     9    24    1
    24     9    25    1
    25    10    11    1
    26    11    26    1
    27    11    27    1
    28    11    28    1
