@<TRIPOS>MOLECULE
IMPHY004751
 14 13 0 0 0
SMALL
GASTEIGER

@<TRIPOS>ATOM
      1 S           2.8660    0.5600    0.0000 S.3     1  UNL1       -0.1637
      2 O           6.3301    0.5600    0.0000 O.2     1  UNL1       -0.3010
      3 C           3.7320    0.0600    0.0000 C.3     1  UNL1       -0.0002
      4 C           4.5981    0.5600    0.0000 C.3     1  UNL1        0.0118
      5 C           5.4641    0.0600    0.0000 C.2     1  UNL1        0.1211
      6 C           2.0000    0.0600    0.0000 C.3     1  UNL1       -0.0181
      7 H           3.3335   -0.4149    0.0000 H       1  UNL1        0.0380
      8 H           4.1306   -0.4149    0.0000 H       1  UNL1        0.0380
      9 H           4.9966    1.0350    0.0000 H       1  UNL1        0.0347
     10 H           4.1996    1.0350    0.0000 H       1  UNL1        0.0347
     11 H           5.4641   -0.5600    0.0000 H       1  UNL1        0.1026
     12 H           1.6900    0.5969    0.0000 H       1  UNL1        0.0340
     13 H           1.4631   -0.2500    0.0000 H       1  UNL1        0.0340
     14 H           2.3100   -0.4769    0.0000 H       1  UNL1        0.0340
@<TRIPOS>BOND
     1     1     3    1
     2     1     6    1
     3     2     5    2
     4     3     4    1
     5     3     7    1
     6     3     8    1
     7     4     5    1
     8     4     9    1
     9     4    10    1
    10     5    11    1
    11     6    12    1
    12     6    13    1
    13     6    14    1
