@<TRIPOS>MOLECULE
IMPHY015173
 29 30 0 0 0
SMALL
GASTEIGER

@<TRIPOS>ATOM
      1 O           6.4379   -0.8044    0.0000 O.2     1  UNL1       -0.4474
      2 O           6.4379   -1.9800    0.0000 O.2     1  UNL1       -0.4553
      3 C           7.2469   -1.3922    0.0000 C.3     1  UNL1        0.2765
      4 C           8.0559   -1.9800    0.0000 C.3     1  UNL1        0.0501
      5 C           8.0559   -0.8044    0.0000 C.2     1  UNL1        0.0031
      6 C           7.7469   -2.9310    0.0000 C.2     1  UNL1       -0.0418
      7 C           6.7469    0.1466    0.0000 C.2     1  UNL1        0.1256
      8 C           7.7469    0.1466    0.0000 C.2     1  UNL1       -0.0164
      9 C           6.7469   -2.9310    0.0000 C.2     1  UNL1        0.0859
     10 C           6.1591    0.9557    0.0000 C.2     1  UNL1       -0.0198
     11 C           5.1646    0.8511    0.0000 C.2     1  UNL1       -0.0583
     12 C           4.5768    1.6602    0.0000 C.2     1  UNL1       -0.0619
     13 C           3.5823    1.5556    0.0000 C.2     1  UNL1       -0.0659
     14 C           2.9945    2.3646    0.0000 C.2     1  UNL1       -0.0871
     15 C           2.0000    2.2601    0.0000 C.3     1  UNL1       -0.0465
     16 H           8.6223   -2.2322    0.0000 H       1  UNL1        0.0388
     17 H           8.3659   -1.4430    0.0000 H       1  UNL1        0.0388
     18 H           8.6456   -0.9960    0.0000 H       1  UNL1        0.0650
     19 H           8.1114   -3.4326    0.0000 H       1  UNL1        0.0605
     20 H           8.1114    0.6482    0.0000 H       1  UNL1        0.0653
     21 H           6.3825   -3.4326    0.0000 H       1  UNL1        0.1021
     22 H           6.4113    1.5221    0.0000 H       1  UNL1        0.0654
     23 H           4.9124    0.2847    0.0000 H       1  UNL1        0.0619
     24 H           4.8290    2.2266    0.0000 H       1  UNL1        0.0618
     25 H           3.3301    0.9892    0.0000 H       1  UNL1        0.0614
     26 H           3.2467    2.9310    0.0000 H       1  UNL1        0.0569
     27 H           1.9352    2.8767    0.0000 H       1  UNL1        0.0272
     28 H           1.3834    2.1953    0.0000 H       1  UNL1        0.0272
     29 H           2.0648    1.6435    0.0000 H       1  UNL1        0.0272
@<TRIPOS>BOND
     1     1     3    1
     2     1     7    1
     3     2     3    1
     4     2     9    1
     5     3     4    1
     6     3     5    1
     7     4     6    1
     8     4    16    1
     9     4    17    1
    10     5     8    2
    11     5    18    1
    12     6     9    2
    13     6    19    1
    14     7     8    1
    15     7    10    2
    16     8    20    1
    17     9    21    1
    18    10    11    1
    19    10    22    1
    20    11    12    2
    21    11    23    1
    22    12    13    1
    23    12    24    1
    24    13    14    2
    25    13    25    1
    26    14    15    1
    27    14    26    1
    28    15    27    1
    29    15    28    1
    30    15    29    1
