@<TRIPOS>MOLECULE
IMPHY000105
 34 33 0 0 0
SMALL
GASTEIGER

@<TRIPOS>ATOM
      1 O           2.5369    1.0000    0.0000 O.3     1  UNL1       -0.3878
      2 O          11.1972    1.0000    0.0000 O.3     1  UNL1       -0.4806
      3 O          10.3312   -0.5000    0.0000 O.2     1  UNL1       -0.2510
      4 C           6.0010    1.0000    0.0000 C.3     1  UNL1       -0.0530
      5 C           6.8671    0.5000    0.0000 C.3     1  UNL1       -0.0530
      6 C           5.1350    0.5000    0.0000 C.3     1  UNL1       -0.0504
      7 C           7.7331    1.0000    0.0000 C.3     1  UNL1       -0.0526
      8 C           4.2690    1.0000    0.0000 C.3     1  UNL1       -0.0233
      9 C           8.5991    0.5000    0.0000 C.3     1  UNL1       -0.0430
     10 C           3.4030    0.5000    0.0000 C.3     1  UNL1        0.0731
     11 C           9.4651    1.0000    0.0000 C.3     1  UNL1        0.0448
     12 C           3.4030   -0.5000    0.0000 C.2     1  UNL1       -0.0630
     13 C          10.3312    0.5000    0.0000 C.2     1  UNL1        0.3047
     14 C           2.5369   -1.0000    0.0000 C.2     1  UNL1       -0.1002
     15 H           6.3996    1.4750    0.0000 H       1  UNL1        0.0265
     16 H           5.6025    1.4750    0.0000 H       1  UNL1        0.0265
     17 H           6.4685    0.0251    0.0000 H       1  UNL1        0.0265
     18 H           7.2656    0.0251    0.0000 H       1  UNL1        0.0265
     19 H           4.7365    0.0251    0.0000 H       1  UNL1        0.0266
     20 H           5.5335    0.0251    0.0000 H       1  UNL1        0.0266
     21 H           8.1316    1.4750    0.0000 H       1  UNL1        0.0265
     22 H           7.3346    1.4750    0.0000 H       1  UNL1        0.0265
     23 H           4.6675    1.4750    0.0000 H       1  UNL1        0.0293
     24 H           3.8705    1.4750    0.0000 H       1  UNL1        0.0293
     25 H           8.2006    0.0251    0.0000 H       1  UNL1        0.0270
     26 H           8.9976    0.0251    0.0000 H       1  UNL1        0.0270
     27 H           3.4030    1.3500    0.0000 H       1  UNL1        0.0637
     28 H           9.8637    1.4750    0.0000 H       1  UNL1        0.0377
     29 H           9.0666    1.4750    0.0000 H       1  UNL1        0.0377
     30 H           3.9399   -0.8100    0.0000 H       1  UNL1        0.0592
     31 H           2.0000    0.6900    0.0000 H       1  UNL1        0.2102
     32 H           2.0000   -0.6900    0.0000 H       1  UNL1        0.0533
     33 H           2.5369   -1.6200    0.0000 H       1  UNL1        0.0533
     34 H          11.7341    0.6900    0.0000 H       1  UNL1        0.2951
@<TRIPOS>BOND
     1     1    10    1
     2     1    31    1
     3     2    13    1
     4     2    34    1
     5     3    13    2
     6     4     5    1
     7     4     6    1
     8     4    15    1
     9     4    16    1
    10     5     7    1
    11     5    17    1
    12     5    18    1
    13     6     8    1
    14     6    19    1
    15     6    20    1
    16     7     9    1
    17     7    21    1
    18     7    22    1
    19     8    10    1
    20     8    23    1
    21     8    24    1
    22     9    11    1
    23     9    25    1
    24     9    26    1
    25    10    12    1
    26    10    27    1
    27    11    13    1
    28    11    28    1
    29    11    29    1
    30    12    14    2
    31    12    30    1
    32    14    32    1
    33    14    33    1
