@<TRIPOS>MOLECULE
IMPHY003802
 73 77 0 0 0
SMALL
GASTEIGER

@<TRIPOS>ATOM
      1 O          10.4586   -0.5366    0.0000 O.3     1  UNL1       -0.3915
      2 O           9.8070    3.1196    0.0000 O.3     1  UNL1       -0.5050
      3 N           2.5357   -3.0890    0.0000 N.3     1  UNL1       -0.3272
      4 N          10.8321    0.6805    0.0000 N.ar    1  UNL1       -0.2557
      5 C           7.9288   -1.0366    0.0000 C.3     1  UNL1       -0.0298
      6 C           7.9288   -0.0366    0.0000 C.3     1  UNL1       -0.0231
      7 C           7.0628   -1.5366    0.0000 C.3     1  UNL1       -0.0343
      8 C           6.1968   -1.0366    0.0000 C.3     1  UNL1       -0.0323
      9 C           5.2868   -1.5435    0.0000 C.3     1  UNL1       -0.0260
     10 C           8.8750    0.2681    0.0000 C.3     1  UNL1       -0.0012
     11 C           5.2787   -2.5851    0.0000 C.3     1  UNL1       -0.0340
     12 C           7.0628    0.4634    0.0000 C.3     1  UNL1       -0.0467
     13 C           6.1968   -0.0366    0.0000 C.3     1  UNL1       -0.0489
     14 C           8.8750   -1.3414    0.0000 C.3     1  UNL1       -0.0230
     15 C           7.0789   -2.5782    0.0000 C.3     1  UNL1       -0.0494
     16 C           9.4586   -0.5366    0.0000 C.3     1  UNL1        0.0594
     17 C           6.1808   -3.1059    0.0000 C.3     1  UNL1       -0.0494
     18 C           4.3599   -0.9794    0.0000 C.3     1  UNL1       -0.0457
     19 C           7.9288    0.9634    0.0000 C.3     1  UNL1       -0.0589
     20 C           4.3433   -3.1348    0.0000 C.3     1  UNL1       -0.0344
     21 C           9.1857    1.2186    0.0000 C.3     1  UNL1        0.0077
     22 C           5.2945   -0.5435    0.0000 C.3     1  UNL1       -0.0590
     23 C           3.4120   -1.5074    0.0000 C.3     1  UNL1       -0.0372
     24 C           3.4037   -2.5923    0.0000 C.3     1  UNL1        0.0051
     25 C           8.5179    1.9629    0.0000 C.3     1  UNL1       -0.0565
     26 C          10.1642    1.4248    0.0000 C.ar    1  UNL1        0.0857
     27 C          10.4749    2.3754    0.0000 C.ar    1  UNL1        0.1386
     28 C          11.4534    2.5816    0.0000 C.ar    1  UNL1       -0.0140
     29 C          11.8106    0.8867    0.0000 C.ar    1  UNL1        0.0310
     30 C          12.1212    1.8373    0.0000 C.ar    1  UNL1       -0.0289
     31 C          13.0997    2.0435    0.0000 C.3     1  UNL1       -0.0382
     32 H           8.0188   -1.8819    0.0000 H       1  UNL1        0.0310
     33 H           7.8022   -1.9560    0.0000 H       1  UNL1        0.0306
     34 H           6.9329   -0.6116    0.0000 H       1  UNL1        0.0309
     35 H           9.7148    0.4000    0.0000 H       1  UNL1        0.0337
     36 H           5.2820   -3.4351    0.0000 H       1  UNL1        0.0307
     37 H           7.4613    0.9383    0.0000 H       1  UNL1        0.0271
     38 H           6.6643    0.9383    0.0000 H       1  UNL1        0.0271
     39 H           5.9847    0.5460    0.0000 H       1  UNL1        0.0268
     40 H           5.5862   -0.1443    0.0000 H       1  UNL1        0.0268
     41 H           8.6240   -1.9083    0.0000 H       1  UNL1        0.0293
     42 H           9.4124   -1.6506    0.0000 H       1  UNL1        0.0293
     43 H           7.2969   -3.1586    0.0000 H       1  UNL1        0.0268
     44 H           7.6880   -2.4626    0.0000 H       1  UNL1        0.0268
     45 H           9.7404   -1.0890    0.0000 H       1  UNL1        0.0596
     46 H           5.7835   -3.5819    0.0000 H       1  UNL1        0.0268
     47 H           6.5818   -3.5788    0.0000 H       1  UNL1        0.0268
     48 H           4.7681   -0.5128    0.0000 H       1  UNL1        0.0271
     49 H           3.9700   -0.4974    0.0000 H       1  UNL1        0.0271
     50 H           8.5488    0.9634    0.0000 H       1  UNL1        0.0235
     51 H           7.9288    1.5834    0.0000 H       1  UNL1        0.0235
     52 H           7.3088    0.9634    0.0000 H       1  UNL1        0.0235
     53 H           3.9460   -3.6108    0.0000 H       1  UNL1        0.0283
     54 H           4.7443   -3.6077    0.0000 H       1  UNL1        0.0283
     55 H           9.3783    1.8079    0.0000 H       1  UNL1        0.0366
     56 H           5.9145   -0.5483    0.0000 H       1  UNL1        0.0235
     57 H           5.2993    0.0765    0.0000 H       1  UNL1        0.0235
     58 H           4.6745   -0.5387    0.0000 H       1  UNL1        0.0235
     59 H           3.2075   -0.9221    0.0000 H       1  UNL1        0.0280
     60 H           2.8004   -1.6087    0.0000 H       1  UNL1        0.0280
     61 H           3.4025   -3.2123    0.0000 H       1  UNL1        0.0458
     62 H          10.7687   -1.0736    0.0000 H       1  UNL1        0.2098
     63 H           8.9793    2.3770    0.0000 H       1  UNL1        0.0236
     64 H           8.1038    2.4244    0.0000 H       1  UNL1        0.0236
     65 H           8.0564    1.5488    0.0000 H       1  UNL1        0.0236
     66 H           2.0000   -2.7769    0.0000 H       1  UNL1        0.1185
     67 H           2.5334   -3.7090    0.0000 H       1  UNL1        0.1185
     68 H          11.6460    3.1709    0.0000 H       1  UNL1        0.0658
     69 H          12.2246    0.4253    0.0000 H       1  UNL1        0.0832
     70 H           9.9996    3.7090    0.0000 H       1  UNL1        0.2922
     71 H          13.2276    1.4368    0.0000 H       1  UNL1        0.0278
     72 H          13.7064    2.1713    0.0000 H       1  UNL1        0.0278
     73 H          12.9719    2.6502    0.0000 H       1  UNL1        0.0278
@<TRIPOS>BOND
     1    16     1    1
     2     1    62    1
     3     2    27    1
     4     2    70    1
     5    24     3    1
     6     3    66    1
     7     3    67    1
     8     4    26   ar
     9     4    29   ar
    10     5     6    1
    11     5     7    1
    12     5    14    1
    13     5    32    1
    14     6    10    1
    15     6    12    1
    16     6    19    1
    17     7     8    1
    18     7    15    1
    19     7    33    1
    20     8     9    1
    21     8    13    1
    22     8    34    1
    23     9    11    1
    24     9    18    1
    25     9    22    1
    26    10    16    1
    27    10    21    1
    28    10    35    1
    29    11    17    1
    30    11    20    1
    31    11    36    1
    32    12    13    1
    33    12    37    1
    34    12    38    1
    35    13    39    1
    36    13    40    1
    37    14    16    1
    38    14    41    1
    39    14    42    1
    40    15    17    1
    41    15    43    1
    42    15    44    1
    43    16    45    1
    44    17    46    1
    45    17    47    1
    46    18    23    1
    47    18    48    1
    48    18    49    1
    49    19    50    1
    50    19    51    1
    51    19    52    1
    52    20    24    1
    53    20    53    1
    54    20    54    1
    55    21    25    1
    56    21    26    1
    57    21    55    1
    58    22    56    1
    59    22    57    1
    60    22    58    1
    61    23    24    1
    62    23    59    1
    63    23    60    1
    64    24    61    1
    65    25    63    1
    66    25    64    1
    67    25    65    1
    68    26    27   ar
    69    27    28   ar
    70    28    30   ar
    71    28    68    1
    72    29    30   ar
    73    29    69    1
    74    30    31    1
    75    31    71    1
    76    31    72    1
    77    31    73    1
