@<TRIPOS>MOLECULE
IMPHY000651
 43 47 0 0 0
SMALL
GASTEIGER

@<TRIPOS>ATOM
      1 C          -0.2192    4.7132    0.0000 C.3     1  UNL1        0.0001
      2 C          -1.2714    6.1134    0.0000 C.3     1  UNL1        0.0001
      3 C           4.0348   -1.7610    0.0000 C.3     1  UNL1        0.0900
      4 C           2.3691   -2.3022    0.0000 C.3     1  UNL1        0.0900
      5 C          -2.9245    2.1802    0.0000 C.3     1  UNL1        0.2525
      6 C           6.0262    2.1456    0.0000 C.ar    1  UNL1        0.0001
      7 C           6.9019    1.6400    0.0000 C.ar    1  UNL1        0.0015
      8 C           5.1505    1.6400    0.0000 C.ar    1  UNL1        0.0012
      9 C           6.9019    0.6288    0.0000 C.ar    1  UNL1        0.0191
     10 C          -0.9226    0.2948    0.0000 C.ar    1  UNL1        0.0401
     11 C          -1.6585    0.7661    0.0000 C.ar    1  UNL1        0.0400
     12 C          -3.4521    0.4192    0.0000 C.2     1  UNL1        0.0238
     13 C           1.4316    2.2191    0.0000 C.3     1  UNL1        0.0365
     14 C          -3.6941    1.4010    0.0000 C.2     1  UNL1        0.1020
     15 C           2.0260    1.4010    0.0000 C.3     1  UNL1        0.0974
     16 C          -1.9579    4.5021    0.0000 C.3     1  UNL1        0.0341
     17 C          -1.8360   -0.6963    0.0000 C.ar    1  UNL1        0.0400
     18 C           3.4099    0.1624    0.0000 C.3     1  UNL1        0.0533
     19 C           4.8103   -0.9716    0.0000 C.ar    1  UNL1        0.0946
     20 C          -1.1495    5.1096    0.0000 C.3     1  UNL1        0.0024
     21 C          -2.7815   -0.3377    0.0000 C.ar    1  UNL1        0.0385
     22 C           4.3990   -0.0478    0.0000 C.ar    1  UNL1        0.0002
     23 C          -0.8322   -0.5744    0.0000 C.ar    1  UNL1        0.1407
     24 C           5.1505    0.6288    0.0000 C.ar    1  UNL1        0.0152
     25 C           0.4699    1.9066    0.0000 C.3     1  UNL1        0.1424
     26 C           6.0262    0.1232    0.0000 C.ar    1  UNL1        0.0810
     27 C          -1.8360    3.4983    0.0000 C.3     1  UNL1        0.1863
     28 C           2.7332   -0.5891    0.0000 C.3     1  UNL1        0.1396
     29 C          -2.4858    0.4846    0.0000 C.ar    1  UNL1        0.1389
     30 C           0.0000    2.8020    0.0000 C.2     1  UNL1        0.2568
     31 C          -2.7815    3.1397    0.0000 C.2     1  UNL1        0.2781
     32 C           1.7441   -0.3788    0.0000 C.2     1  UNL1        0.2429
     33 C           0.4699    0.8954    0.0000 C.3     1  UNL1        0.2553
     34 N          -3.4521    2.3828    0.0000 N.2     1  UNL1       -0.2085
     35 N           5.8159   -0.8659    0.0000 N.ar    1  UNL1       -0.2442
     36 N          -0.8322    3.3764    0.0000 N.2     1  UNL1       -0.2300
     37 N           3.0457   -1.5508    0.0000 N.3     1  UNL1       -0.2638
     38 N           1.4316    0.5829    0.0000 N.am    1  UNL1       -0.2456
     39 O           0.7569    3.4725    0.0000 O.2     1  UNL1       -0.2704
     40 O          -3.3560    3.9719    0.0000 O.2     1  UNL1       -0.2681
     41 O           1.0675   -1.1303    0.0000 O.2     1  UNL1       -0.2733
     42 O          -3.1946    1.2058    0.0000 O.3     1  UNL1       -0.4714
     43 O           0.0000    0.0000    0.0000 O.3     1  UNL1       -0.4598
@<TRIPOS>BOND
     1     1    20    1
     2     2    20    1
     3     3    37    1
     4     4    37    1
     5     5    42    1
     6     6     7   ar
     7     6     8   ar
     8     7     9   ar
     9     8    24   ar
    10     9    26   ar
    11    10    11   ar
    12    10    23   ar
    13    11    29   ar
    14    12    14    2
    15    12    21    1
    16    13    15    1
    17    13    25    1
    18    14    34    1
    19    15    38    1
    20    16    20    1
    21    16    27    1
    22    17    21   ar
    23    17    23   ar
    24    18    22    1
    25    18    28    1
    26    19    22   ar
    27    19    35   ar
    28    21    29   ar
    29    22    24   ar
    30    23    43    1
    31    24    26   ar
    32    25    30    1
    33    25    33    1
    34    26    35   ar
    35    27    31    1
    36    27    36    1
    37    28    32    1
    38    28    37    1
    39    29    42    1
    40    30    36    2
    41    30    39    1
    42    31    34    2
    43    31    40    1
    44    32    38   am
    45    32    41    2
    46    33    38    1
    47    33    43    1
