@<TRIPOS>MOLECULE
IMPHY012837
 44 45 0 0 0
SMALL
GASTEIGER

@<TRIPOS>ATOM
      1 O           6.3301   -1.0000    0.0000 O.3     1  UNL1       -0.4942
      2 O           2.8660   -1.0000    0.0000 O.3     1  UNL1       -0.4942
      3 O           4.5981   -4.0000    0.0000 O.3     1  UNL1       -0.4949
      4 O           3.7320    0.5000    0.0000 O.2     1  UNL1       -0.2870
      5 O           8.9282    3.5000    0.0000 O.3     1  UNL1       -0.4951
      6 C           4.5981   -1.0000    0.0000 C.ar    1  UNL1        0.1049
      7 C           5.4641   -1.5000    0.0000 C.ar    1  UNL1        0.1379
      8 C           3.7320   -1.5000    0.0000 C.ar    1  UNL1        0.1379
      9 C           4.5981   -3.0000    0.0000 C.ar    1  UNL1        0.1271
     10 C           5.4641   -2.5000    0.0000 C.ar    1  UNL1        0.0227
     11 C           3.7320   -2.5000    0.0000 C.ar    1  UNL1        0.0227
     12 C           4.5981    0.0000    0.0000 C.2     1  UNL1        0.1931
     13 C           6.3301    2.0000    0.0000 C.ar    1  UNL1       -0.0247
     14 C           5.4641    0.5000    0.0000 C.2     1  UNL1       -0.0135
     15 C           5.4641    1.5000    0.0000 C.2     1  UNL1       -0.0510
     16 C           6.3301    3.0000    0.0000 C.ar    1  UNL1       -0.0511
     17 C           7.1962    1.5000    0.0000 C.ar    1  UNL1       -0.0511
     18 C           8.0622    3.0000    0.0000 C.ar    1  UNL1        0.1201
     19 C           7.1962    3.5000    0.0000 C.ar    1  UNL1       -0.0194
     20 C           8.0622    2.0000    0.0000 C.ar    1  UNL1       -0.0194
     21 C           7.1962   -1.5000    0.0000 C.3     1  UNL1        0.0788
     22 C           2.0000   -1.5000    0.0000 C.3     1  UNL1        0.0788
     23 C           3.7320   -4.5000    0.0000 C.3     1  UNL1        0.0788
     24 C           8.9282    4.5000    0.0000 C.3     1  UNL1        0.0788
     25 H           6.0010   -2.8100    0.0000 H       1  UNL1        0.0691
     26 H           3.1951   -2.8100    0.0000 H       1  UNL1        0.0691
     27 H           6.0010    0.1900    0.0000 H       1  UNL1        0.0656
     28 H           4.9272    1.8100    0.0000 H       1  UNL1        0.0625
     29 H           5.7932    3.3100    0.0000 H       1  UNL1        0.0625
     30 H           7.1962    0.8800    0.0000 H       1  UNL1        0.0625
     31 H           7.1962    4.1200    0.0000 H       1  UNL1        0.0654
     32 H           8.5991    1.6900    0.0000 H       1  UNL1        0.0654
     33 H           6.8862   -2.0369    0.0000 H       1  UNL1        0.0660
     34 H           7.7331   -1.8100    0.0000 H       1  UNL1        0.0660
     35 H           7.5062   -0.9631    0.0000 H       1  UNL1        0.0660
     36 H           1.6900   -0.9631    0.0000 H       1  UNL1        0.0660
     37 H           1.4631   -1.8100    0.0000 H       1  UNL1        0.0660
     38 H           2.3100   -2.0369    0.0000 H       1  UNL1        0.0660
     39 H           3.4220   -3.9631    0.0000 H       1  UNL1        0.0660
     40 H           3.1951   -4.8100    0.0000 H       1  UNL1        0.0660
     41 H           4.0420   -5.0369    0.0000 H       1  UNL1        0.0660
     42 H           9.5482    4.5000    0.0000 H       1  UNL1        0.0660
     43 H           8.9282    5.1200    0.0000 H       1  UNL1        0.0660
     44 H           8.3082    4.5000    0.0000 H       1  UNL1        0.0660
@<TRIPOS>BOND
     1     1     7    1
     2     1    21    1
     3     2     8    1
     4     2    22    1
     5     3     9    1
     6     3    23    1
     7     4    12    2
     8     5    18    1
     9     5    24    1
    10     6     7   ar
    11     6     8   ar
    12     6    12    1
    13     7    10   ar
    14     8    11   ar
    15     9    10   ar
    16     9    11   ar
    17    10    25    1
    18    11    26    1
    19    12    14    1
    20    13    15    1
    21    13    16   ar
    22    13    17   ar
    23    14    15    2
    24    14    27    1
    25    15    28    1
    26    16    19   ar
    27    16    29    1
    28    17    20   ar
    29    17    30    1
    30    18    19   ar
    31    18    20   ar
    32    19    31    1
    33    20    32    1
    34    21    33    1
    35    21    34    1
    36    21    35    1
    37    22    36    1
    38    22    37    1
    39    22    38    1
    40    23    39    1
    41    23    40    1
    42    23    41    1
    43    24    42    1
    44    24    43    1
    45    24    44    1
