@<TRIPOS>MOLECULE
IMPHY016110
 44 43 0 0 0
SMALL
GASTEIGER

@<TRIPOS>ATOM
      1 O           2.8660   -3.7500    0.0000 O.2     1  UNL1       -0.2977
      2 C           8.9282    0.7500    0.0000 C.3     1  UNL1       -0.0530
      3 C           8.0622    0.2500    0.0000 C.3     1  UNL1       -0.0528
      4 C           8.9282    1.7500    0.0000 C.3     1  UNL1       -0.0531
      5 C           8.0622   -0.7500    0.0000 C.3     1  UNL1       -0.0496
      6 C           9.7942    2.2500    0.0000 C.3     1  UNL1       -0.0533
      7 C           7.1962   -1.2500    0.0000 C.3     1  UNL1       -0.0348
      8 C           9.7942    3.2500    0.0000 C.3     1  UNL1       -0.0559
      9 C           7.1962   -2.2500    0.0000 C.2     1  UNL1       -0.0879
     10 C           5.4641   -2.2500    0.0000 C.3     1  UNL1       -0.0344
     11 C          10.6603    3.7500    0.0000 C.3     1  UNL1       -0.0653
     12 C           4.5981   -2.7500    0.0000 C.3     1  UNL1       -0.0429
     13 C           6.3301   -2.7500    0.0000 C.2     1  UNL1       -0.0879
     14 C           3.7320   -2.2500    0.0000 C.3     1  UNL1        0.0058
     15 C           2.8660   -2.7500    0.0000 C.2     1  UNL1        0.1303
     16 C           2.0000   -2.2500    0.0000 C.3     1  UNL1       -0.0061
     17 H           9.1403    0.1674    0.0000 H       1  UNL1        0.0265
     18 H           9.5388    0.8577    0.0000 H       1  UNL1        0.0265
     19 H           7.8501    0.8326    0.0000 H       1  UNL1        0.0265
     20 H           7.4516    0.1423    0.0000 H       1  UNL1        0.0265
     21 H           8.7162    2.3326    0.0000 H       1  UNL1        0.0265
     22 H           8.3176    1.6423    0.0000 H       1  UNL1        0.0265
     23 H           8.2742   -1.3326    0.0000 H       1  UNL1        0.0268
     24 H           8.6728   -0.6423    0.0000 H       1  UNL1        0.0268
     25 H          10.0063    1.6674    0.0000 H       1  UNL1        0.0265
     26 H          10.4048    2.3577    0.0000 H       1  UNL1        0.0265
     27 H           6.9841   -0.6674    0.0000 H       1  UNL1        0.0307
     28 H           6.5856   -1.3577    0.0000 H       1  UNL1        0.0307
     29 H           9.5822    3.8326    0.0000 H       1  UNL1        0.0263
     30 H           9.1836    3.1423    0.0000 H       1  UNL1        0.0263
     31 H           7.7331   -2.5600    0.0000 H       1  UNL1        0.0569
     32 H           5.8626   -1.7750    0.0000 H       1  UNL1        0.0307
     33 H           5.0656   -1.7750    0.0000 H       1  UNL1        0.0307
     34 H           4.1996   -3.2250    0.0000 H       1  UNL1        0.0272
     35 H           4.9966   -3.2250    0.0000 H       1  UNL1        0.0272
     36 H          10.9703    3.2131    0.0000 H       1  UNL1        0.0230
     37 H          11.1972    4.0600    0.0000 H       1  UNL1        0.0230
     38 H          10.3503    4.2869    0.0000 H       1  UNL1        0.0230
     39 H           6.3301   -3.3700    0.0000 H       1  UNL1        0.0569
     40 H           4.1306   -1.7750    0.0000 H       1  UNL1        0.0342
     41 H           3.3335   -1.7750    0.0000 H       1  UNL1        0.0342
     42 H           2.3100   -1.7131    0.0000 H       1  UNL1        0.0306
     43 H           1.4631   -1.9400    0.0000 H       1  UNL1        0.0306
     44 H           1.6900   -2.7869    0.0000 H       1  UNL1        0.0306
@<TRIPOS>BOND
     1     1    15    2
     2     2     3    1
     3     2     4    1
     4     2    17    1
     5     2    18    1
     6     3     5    1
     7     3    19    1
     8     3    20    1
     9     4     6    1
    10     4    21    1
    11     4    22    1
    12     5     7    1
    13     5    23    1
    14     5    24    1
    15     6     8    1
    16     6    25    1
    17     6    26    1
    18     7     9    1
    19     7    27    1
    20     7    28    1
    21     8    11    1
    22     8    29    1
    23     8    30    1
    24     9    13    2
    25     9    31    1
    26    10    12    1
    27    10    13    1
    28    10    32    1
    29    10    33    1
    30    11    36    1
    31    11    37    1
    32    11    38    1
    33    12    14    1
    34    12    34    1
    35    12    35    1
    36    13    39    1
    37    14    15    1
    38    14    40    1
    39    14    41    1
    40    15    16    1
    41    16    42    1
    42    16    43    1
    43    16    44    1
