@<TRIPOS>MOLECULE
IMPHY000235
 140 146 0 0 0
SMALL
GASTEIGER

@<TRIPOS>ATOM
      1 S           4.2690    3.0659    0.0000 S.3     1  UNL1        0.0000
      2 NA          3.4030    4.5659    0.0000 Na      2  UNL2        0.0000
      3 O          14.7182   -2.3237    0.0000 O.3     1  UNL1        0.0000
      4 O          15.0206   -4.2638    0.0000 O.3     1  UNL1        0.0000
      5 O           6.8671    1.5659    0.0000 O.3     1  UNL1        0.0000
      6 O           6.0010   -0.9341    0.0000 O.3     1  UNL1        0.0000
      7 O           4.2690    0.0659    0.0000 O.3     1  UNL1        0.0000
      8 O           4.2690    2.0659    0.0000 O.3     1  UNL1        0.0000
      9 O          18.7195   -1.5918    0.0000 O.3     1  UNL1        0.0000
     10 O           4.2690   -0.9341    0.0000 O.3     1  UNL1        0.0000
     11 O           6.8671    3.5659    0.0000 O.3     1  UNL1        0.0000
     12 O           6.0010   -2.9341    0.0000 O.3     1  UNL1        0.0000
     13 O          20.2221   -0.7303    0.0000 O.3     1  UNL1        0.0000
     14 O           4.2690    4.0659    0.0000 O.co2   1  UNL1       -0.3300
     15 O           4.2690   -3.9341    0.0000 O.3     1  UNL1        0.0000
     16 O           3.2690    3.0659    0.0000 O.2     1  UNL1       -0.3300
     17 O           5.2690    3.0659    0.0000 O.2     1  UNL1       -0.3300
     18 O           2.5369   -2.9341    0.0000 O.3     1  UNL1        0.0000
     19 O          17.7247    0.1432    0.0000 O.3     1  UNL1        0.0000
     20 O          18.7299    1.8723    0.0000 O.3     1  UNL1        0.0000
     21 O          20.7299    1.8663    0.0000 O.3     1  UNL1        0.0000
     22 O          22.2221   -0.7362    0.0000 O.3     1  UNL1        0.0000
     23 C          12.2483   -2.5072    0.0000 C.3     1  UNL1        0.0000
     24 C          12.2522   -1.5072    0.0000 C.3     1  UNL1        0.0000
     25 C          13.1934   -2.8156    0.0000 C.3     1  UNL1        0.0000
     26 C          11.3881   -1.0038    0.0000 C.3     1  UNL1        0.0000
     27 C          10.5202   -1.5005    0.0000 C.3     1  UNL1        0.0000
     28 C          13.7801   -2.0131    0.0000 C.3     1  UNL1        0.0000
     29 C          13.1996   -1.2061    0.0000 C.3     1  UNL1        0.0000
     30 C          11.3804   -3.0038    0.0000 C.3     1  UNL1        0.0000
     31 C          13.7739   -3.6152    0.0000 C.3     1  UNL1        0.0000
     32 C           9.6121   -0.9902    0.0000 C.3     1  UNL1        0.0000
     33 C          10.5163   -2.5005    0.0000 C.3     1  UNL1        0.0000
     34 C          14.7144   -3.3119    0.0000 C.3     1  UNL1        0.0000
     35 C          12.2445   -3.5072    0.0000 C.3     1  UNL1        0.0000
     36 C          11.4082    0.0376    0.0000 C.3     1  UNL1        0.0000
     37 C           9.6081    0.0515    0.0000 C.2     1  UNL1        0.0000
     38 C           8.6831   -1.5507    0.0000 C.3     1  UNL1        0.0000
     39 C          10.5122    0.5688    0.0000 C.2     1  UNL1        0.0000
     40 C          13.4637   -4.5659    0.0000 C.3     1  UNL1        0.0000
     41 C           9.6160   -1.9902    0.0000 C.3     1  UNL1        0.0000
     42 C           8.6748    0.6048    0.0000 C.3     1  UNL1        0.0000
     43 C          15.7144   -3.3149    0.0000 C.3     1  UNL1        0.0000
     44 C           7.7373   -1.0191    0.0000 C.3     1  UNL1        0.0000
     45 C           7.7331    0.0659    0.0000 C.3     1  UNL1        0.0000
     46 C           6.8671    0.5659    0.0000 C.3     1  UNL1        0.0000
     47 C          16.2170   -2.4503    0.0000 C.3     1  UNL1        0.0000
     48 C           6.0010    0.0659    0.0000 C.3     1  UNL1        0.0000
     49 C          17.2170   -2.4533    0.0000 C.3     1  UNL1        0.0000
     50 C           5.1350    0.5659    0.0000 C.3     1  UNL1        0.0000
     51 C           6.0010    2.0659    0.0000 C.3     1  UNL1        0.0000
     52 C           5.1350    1.5659    0.0000 C.3     1  UNL1        0.0000
     53 C          17.7195   -1.5888    0.0000 C.3     1  UNL1        0.0000
     54 C          17.7144   -3.3208    0.0000 C.3     1  UNL1        0.0000
     55 C           6.0010    3.0659    0.0000 C.3     1  UNL1        0.0000
     56 C           5.1350   -1.4341    0.0000 C.3     1  UNL1        0.0000
     57 C           5.1350   -2.4341    0.0000 C.3     1  UNL1        0.0000
     58 C          19.2221   -0.7273    0.0000 C.3     1  UNL1        0.0000
     59 C           4.2690   -2.9341    0.0000 C.3     1  UNL1        0.0000
     60 C           3.4030   -1.4341    0.0000 C.3     1  UNL1        0.0000
     61 C           3.4030   -2.4341    0.0000 C.3     1  UNL1        0.0000
     62 C          18.7247    0.1403    0.0000 C.3     1  UNL1        0.0000
     63 C          19.2273    1.0048    0.0000 C.3     1  UNL1        0.0000
     64 C           2.5369   -0.9341    0.0000 C.3     1  UNL1        0.0000
     65 C          20.7247    0.1343    0.0000 C.3     1  UNL1        0.0000
     66 C          20.2273    1.0018    0.0000 C.3     1  UNL1        0.0000
     67 C          21.7247    0.1313    0.0000 C.3     1  UNL1        0.0000
     68 H          12.3454   -0.6623    0.0000 H       1  UNL1        0.0000
     69 H          12.6932   -3.5028    0.0000 H       1  UNL1        0.0000
     70 H          12.1291   -0.5874    0.0000 H       1  UNL1        0.0000
     71 H          11.2546   -1.9283    0.0000 H       1  UNL1        0.0000
     72 H          14.1471   -1.5134    0.0000 H       1  UNL1        0.0000
     73 H          13.7382   -0.8990    0.0000 H       1  UNL1        0.0000
     74 H          12.9507   -0.6382    0.0000 H       1  UNL1        0.0000
     75 H          10.9800   -3.4772    0.0000 H       1  UNL1        0.0000
     76 H          11.7771   -3.4803    0.0000 H       1  UNL1        0.0000
     77 H          13.1615   -3.7117    0.0000 H       1  UNL1        0.0000
     78 H           9.9061   -2.3905    0.0000 H       1  UNL1        0.0000
     79 H          10.3020   -3.0823    0.0000 H       1  UNL1        0.0000
     80 H          11.6245   -3.5048    0.0000 H       1  UNL1        0.0000
     81 H          12.2421   -4.1272    0.0000 H       1  UNL1        0.0000
     82 H          12.8645   -3.5096    0.0000 H       1  UNL1        0.0000
     83 H          12.0169   -0.0803    0.0000 H       1  UNL1        0.0000
     84 H          11.6284    0.6171    0.0000 H       1  UNL1        0.0000
     85 H           8.2913   -2.0312    0.0000 H       1  UNL1        0.0000
     86 H           9.0895   -2.0189    0.0000 H       1  UNL1        0.0000
     87 H          10.5170    1.1888    0.0000 H       1  UNL1        0.0000
     88 H          12.8743   -4.3736    0.0000 H       1  UNL1        0.0000
     89 H          13.2714   -5.1553    0.0000 H       1  UNL1        0.0000
     90 H          14.0531   -4.7582    0.0000 H       1  UNL1        0.0000
     91 H           8.9960   -1.9925    0.0000 H       1  UNL1        0.0000
     92 H           9.6184   -2.6102    0.0000 H       1  UNL1        0.0000
     93 H          10.2360   -1.9878    0.0000 H       1  UNL1        0.0000
     94 H           9.0776    1.0761    0.0000 H       1  UNL1        0.0000
     95 H           8.2793    1.0823    0.0000 H       1  UNL1        0.0000
     96 H          15.6049   -3.9251    0.0000 H       1  UNL1        0.0000
     97 H          16.2964   -3.5287    0.0000 H       1  UNL1        0.0000
     98 H           7.1260   -0.9153    0.0000 H       1  UNL1        0.0000
     99 H           7.5305   -1.6036    0.0000 H       1  UNL1        0.0000
    100 H           7.7347    0.9159    0.0000 H       1  UNL1        0.0000
    101 H          15.6266   -4.3946    0.0000 H       1  UNL1        0.0000
    102 H           6.8671   -0.2841    0.0000 H       1  UNL1        0.0000
    103 H          16.3265   -1.8401    0.0000 H       1  UNL1        0.0000
    104 H          15.6350   -2.2365    0.0000 H       1  UNL1        0.0000
    105 H           5.4641   -0.2441    0.0000 H       1  UNL1        0.0000
    106 H          16.9054   -2.9893    0.0000 H       1  UNL1        0.0000
    107 H           4.5981    0.8759    0.0000 H       1  UNL1        0.0000
    108 H           6.5380    2.3759    0.0000 H       1  UNL1        0.0000
    109 H           5.1350    2.1859    0.0000 H       1  UNL1        0.0000
    110 H          17.8290   -0.9785    0.0000 H       1  UNL1        0.0000
    111 H          17.1376   -1.3750    0.0000 H       1  UNL1        0.0000
    112 H          17.1765   -3.6292    0.0000 H       1  UNL1        0.0000
    113 H          18.0228   -3.8587    0.0000 H       1  UNL1        0.0000
    114 H          18.2522   -3.0124    0.0000 H       1  UNL1        0.0000
    115 H           5.7890    3.6485    0.0000 H       1  UNL1        0.0000
    116 H           5.3905    2.9583    0.0000 H       1  UNL1        0.0000
    117 H           5.1350   -0.8141    0.0000 H       1  UNL1        0.0000
    118 H           3.7320    0.3759    0.0000 H       1  UNL1        0.0000
    119 H           5.1350   -3.0541    0.0000 H       1  UNL1        0.0000
    120 H          19.5305   -1.2651    0.0000 H       1  UNL1        0.0000
    121 H           6.8671    4.1859    0.0000 H       1  UNL1        0.0000
    122 H           3.7320   -3.2441    0.0000 H       1  UNL1        0.0000
    123 H           3.4030   -0.8141    0.0000 H       1  UNL1        0.0000
    124 H           2.8660   -2.1241    0.0000 H       1  UNL1        0.0000
    125 H          18.4163    0.6781    0.0000 H       1  UNL1        0.0000
    126 H           6.0010   -3.5541    0.0000 H       1  UNL1        0.0000
    127 H          19.5389    1.5408    0.0000 H       1  UNL1        0.0000
    128 H           2.8469   -0.3971    0.0000 H       1  UNL1        0.0000
    129 H           2.0000   -0.6241    0.0000 H       1  UNL1        0.0000
    130 H           2.2269   -1.4710    0.0000 H       1  UNL1        0.0000
    131 H          21.0331   -0.4036    0.0000 H       1  UNL1        0.0000
    132 H           3.7320   -4.2441    0.0000 H       1  UNL1        0.0000
    133 H          20.8473    0.9999    0.0000 H       1  UNL1        0.0000
    134 H           2.0000   -2.6241    0.0000 H       1  UNL1        0.0000
    135 H          17.4163    0.6811    0.0000 H       1  UNL1        0.0000
    136 H          22.3079    0.3416    0.0000 H       1  UNL1        0.0000
    137 H          21.6189    0.7422    0.0000 H       1  UNL1        0.0000
    138 H          19.0415    2.4083    0.0000 H       1  UNL1        0.0000
    139 H          21.3499    1.8645    0.0000 H       1  UNL1        0.0000
    140 H          22.8421   -0.7381    0.0000 H       1  UNL1        0.0000
@<TRIPOS>UNITY_ATOM_ATTR
2 1
charge 1
14 1
charge -1
@<TRIPOS>BOND
     1     1     8    1
     2     1    14    1
     3     1    16    2
     4     1    17    2
     5     3    28    1
     6     3    34    1
     7    34     4    1
     8     4   101    1
     9     5    46    1
    10     5    51    1
    11    48     6    1
    12    56     6    1
    13    50     7    1
    14     7   118    1
    15    52     8    1
    16     9    53    1
    17    58     9    1
    18    10    56    1
    19    10    60    1
    20    11    55    1
    21    11   121    1
    22    57    12    1
    23    12   126    1
    24    13    58    1
    25    13    65    1
    26    59    15    1
    27    15   132    1
    28    61    18    1
    29    18   134    1
    30    62    19    1
    31    19   135    1
    32    63    20    1
    33    20   138    1
    34    66    21    1
    35    21   139    1
    36    22    67    1
    37    22   140    1
    38    23    24    1
    39    23    25    1
    40    23    30    1
    41    23    35    1
    42    24    26    1
    43    24    29    1
    44    24    68    1
    45    25    28    1
    46    25    31    1
    47    25    69    1
    48    26    27    1
    49    26    36    1
    50    26    70    1
    51    27    32    1
    52    27    33    1
    53    27    71    1
    54    28    29    1
    55    28    72    1
    56    29    73    1
    57    29    74    1
    58    30    33    1
    59    30    75    1
    60    30    76    1
    61    31    34    1
    62    31    40    1
    63    31    77    1
    64    32    37    1
    65    32    38    1
    66    32    41    1
    67    33    78    1
    68    33    79    1
    69    34    43    1
    70    35    80    1
    71    35    81    1
    72    35    82    1
    73    36    39    1
    74    36    83    1
    75    36    84    1
    76    37    39    2
    77    37    42    1
    78    38    44    1
    79    38    85    1
    80    38    86    1
    81    39    87    1
    82    40    88    1
    83    40    89    1
    84    40    90    1
    85    41    91    1
    86    41    92    1
    87    41    93    1
    88    42    45    1
    89    42    94    1
    90    42    95    1
    91    43    47    1
    92    43    96    1
    93    43    97    1
    94    44    45    1
    95    44    98    1
    96    44    99    1
    97    45    46    1
    98    45   100    1
    99    46    48    1
   100    46   102    1
   101    47    49    1
   102    47   103    1
   103    47   104    1
   104    48    50    1
   105    48   105    1
   106    49    53    1
   107    49    54    1
   108    49   106    1
   109    50    52    1
   110    50   107    1
   111    51    52    1
   112    51    55    1
   113    51   108    1
   114    52   109    1
   115    53   110    1
   116    53   111    1
   117    54   112    1
   118    54   113    1
   119    54   114    1
   120    55   115    1
   121    55   116    1
   122    56    57    1
   123    56   117    1
   124    57    59    1
   125    57   119    1
   126    58    62    1
   127    58   120    1
   128    59    61    1
   129    59   122    1
   130    60    61    1
   131    60    64    1
   132    60   123    1
   133    61   124    1
   134    62    63    1
   135    62   125    1
   136    63    66    1
   137    63   127    1
   138    64   128    1
   139    64   129    1
   140    64   130    1
   141    65    66    1
   142    65    67    1
   143    65   131    1
   144    66   133    1
   145    67   136    1
   146    67   137    1
