@<TRIPOS>MOLECULE
IMPHY009978
 70 75 0 0 0
SMALL
GASTEIGER

@<TRIPOS>ATOM
      1 O           7.7331   -0.2092    0.0000 O.3     1  UNL1       -0.3313
      2 O           4.2690   -1.2092    0.0000 O.3     1  UNL1       -0.3405
      3 O           6.0010   -1.2092    0.0000 O.3     1  UNL1       -0.3460
      4 O           6.0010    1.7908    0.0000 O.3     1  UNL1       -0.3865
      5 O           9.4651   -0.2092    0.0000 O.3     1  UNL1       -0.4570
      6 O           7.7331    2.7908    0.0000 O.3     1  UNL1       -0.3864
      7 O           9.4651    1.7908    0.0000 O.3     1  UNL1       -0.3829
      8 O           6.0010   -3.2092    0.0000 O.3     1  UNL1       -0.3841
      9 O           4.2690   -4.2092    0.0000 O.3     1  UNL1       -0.3864
     10 O           2.5369   -3.2092    0.0000 O.3     1  UNL1       -0.3865
     11 O           2.5369   -0.2092    0.0000 O.3     1  UNL1       -0.3924
     12 O          12.9108   -0.2473    0.0000 O.2     1  UNL1       -0.4178
     13 O          12.0993    3.3386    0.0000 O.2     1  UNL1       -0.4178
     14 O          11.1747   -1.2102    0.0000 O.3     1  UNL1       -0.5009
     15 O          10.3291    3.3493    0.0000 O.2     1  UNL1       -0.2445
     16 O          13.9244    4.2373    0.0000 O.3     1  UNL1       -0.5009
     17 O          14.6425   -0.2814    0.0000 O.2     1  UNL1       -0.2445
     18 O          15.5932    3.1698    0.0000 O.3     1  UNL1       -0.5032
     19 C           6.8671    0.2908    0.0000 C.3     1  UNL1        0.1144
     20 C           6.8671    1.2908    0.0000 C.3     1  UNL1        0.1120
     21 C           7.7331    1.7908    0.0000 C.3     1  UNL1        0.1152
     22 C           8.5991    1.2908    0.0000 C.3     1  UNL1        0.1454
     23 C           5.1350   -2.7092    0.0000 C.3     1  UNL1        0.1341
     24 C           5.1350   -1.7092    0.0000 C.3     1  UNL1        0.1880
     25 C           4.2690   -3.2092    0.0000 C.3     1  UNL1        0.1141
     26 C           3.4030   -2.7092    0.0000 C.3     1  UNL1        0.1119
     27 C           8.5991    0.2908    0.0000 C.3     1  UNL1        0.2310
     28 C           3.4030   -1.7092    0.0000 C.3     1  UNL1        0.1130
     29 C           6.0010   -0.2092    0.0000 C.3     1  UNL1        0.0796
     30 C           2.5369   -1.2092    0.0000 C.3     1  UNL1        0.0730
     31 C          10.3312    0.2908    0.0000 C.ar    1  UNL1        0.1697
     32 C          12.0745    1.2694    0.0000 C.ar    1  UNL1        0.0468
     33 C          11.1869   -0.2103    0.0000 C.ar    1  UNL1        0.2026
     34 C          10.3251    1.2825    0.0000 C.ar    1  UNL1       -0.0014
     35 C          11.1746    1.7941    0.0000 C.ar    1  UNL1        0.0744
     36 C          12.0548    0.2696    0.0000 C.ar    1  UNL1        0.1854
     37 C          12.9502    1.7523    0.0000 C.ar    1  UNL1        0.0468
     38 C          13.8062    1.2353    0.0000 C.ar    1  UNL1        0.0744
     39 C          12.9867    2.7933    0.0000 C.ar    1  UNL1        0.1854
     40 C          11.1871    2.8357    0.0000 C.ar    1  UNL1        0.3454
     41 C          13.7865    0.2355    0.0000 C.ar    1  UNL1        0.3454
     42 C          13.8728    3.2387    0.0000 C.ar    1  UNL1        0.2022
     43 C          14.6752    1.7131    0.0000 C.ar    1  UNL1       -0.0017
     44 C          14.7082    2.7042    0.0000 C.ar    1  UNL1        0.1628
     45 H           6.8671   -0.3292    0.0000 H       1  UNL1        0.0647
     46 H           6.8671    1.9108    0.0000 H       1  UNL1        0.0647
     47 H           8.2700    2.1008    0.0000 H       1  UNL1        0.0648
     48 H           9.1360    0.9808    0.0000 H       1  UNL1        0.0683
     49 H           5.1350   -3.3292    0.0000 H       1  UNL1        0.0671
     50 H           5.1350   -1.0892    0.0000 H       1  UNL1        0.0937
     51 H           3.7320   -3.5192    0.0000 H       1  UNL1        0.0648
     52 H           2.8660   -2.3992    0.0000 H       1  UNL1        0.0647
     53 H           8.5991   -0.3292    0.0000 H       1  UNL1        0.1084
     54 H           3.4030   -1.0892    0.0000 H       1  UNL1        0.0647
     55 H           5.7890    0.3734    0.0000 H       1  UNL1        0.0587
     56 H           5.3905   -0.3168    0.0000 H       1  UNL1        0.0587
     57 H           1.9264   -1.1015    0.0000 H       1  UNL1        0.0584
     58 H           2.3249   -1.7918    0.0000 H       1  UNL1        0.0584
     59 H           5.4641    1.4808    0.0000 H       1  UNL1        0.2100
     60 H           7.1962    3.1008    0.0000 H       1  UNL1        0.2100
     61 H           9.4651    2.4108    0.0000 H       1  UNL1        0.2102
     62 H           6.5380   -2.8992    0.0000 H       1  UNL1        0.2101
     63 H           3.7320   -4.5192    0.0000 H       1  UNL1        0.2100
     64 H           2.0000   -2.8992    0.0000 H       1  UNL1        0.2100
     65 H           9.7844    1.5859    0.0000 H       1  UNL1        0.0664
     66 H           2.0000    0.1008    0.0000 H       1  UNL1        0.2095
     67 H          15.2036    1.3886    0.0000 H       1  UNL1        0.0664
     68 H          11.7077   -1.5268    0.0000 H       1  UNL1        0.2924
     69 H          14.4767    4.5192    0.0000 H       1  UNL1        0.2924
     70 H          16.1175    2.8388    0.0000 H       1  UNL1        0.2923
@<TRIPOS>BOND
     1     1    19    1
     2     1    27    1
     3     2    24    1
     4     2    28    1
     5     3    24    1
     6     3    29    1
     7     4    20    1
     8     4    59    1
     9     5    27    1
    10     5    31    1
    11     6    21    1
    12     6    60    1
    13     7    22    1
    14     7    61    1
    15     8    23    1
    16     8    62    1
    17     9    25    1
    18     9    63    1
    19    10    26    1
    20    10    64    1
    21    11    30    1
    22    11    66    1
    23    12    36   ar
    24    12    41   ar
    25    13    39   ar
    26    13    40   ar
    27    14    33    1
    28    14    68    1
    29    15    40    2
    30    16    42    1
    31    16    69    1
    32    17    41    2
    33    18    44    1
    34    18    70    1
    35    19    20    1
    36    19    29    1
    37    19    45    1
    38    20    21    1
    39    20    46    1
    40    21    22    1
    41    21    47    1
    42    22    27    1
    43    22    48    1
    44    23    24    1
    45    23    25    1
    46    23    49    1
    47    24    50    1
    48    25    26    1
    49    25    51    1
    50    26    28    1
    51    26    52    1
    52    27    53    1
    53    28    30    1
    54    28    54    1
    55    29    55    1
    56    29    56    1
    57    30    57    1
    58    30    58    1
    59    31    33   ar
    60    31    34   ar
    61    32    35   ar
    62    32    36   ar
    63    32    37   ar
    64    33    36   ar
    65    34    35   ar
    66    34    65    1
    67    35    40   ar
    68    37    38   ar
    69    37    39   ar
    70    38    41   ar
    71    38    43   ar
    72    39    42   ar
    73    42    44   ar
    74    43    44   ar
    75    43    67    1
