@<TRIPOS>MOLECULE
IMPHY007734
 46 50 0 0 0
SMALL
GASTEIGER

@<TRIPOS>ATOM
      1 O           3.7702   -3.6653    0.0000 O.3     1  UNL1       -0.4253
      2 O           5.5141   -0.5891    0.0000 O.2     1  UNL1       -0.4541
      3 O           7.2622   -3.6306    0.0000 O.3     1  UNL1       -0.5058
      4 O           2.0000   -3.6548    0.0000 O.2     1  UNL1       -0.2504
      5 O           8.1663   -2.1338    0.0000 O.2     1  UNL1       -0.2869
      6 O           6.3967    3.9386    0.0000 O.3     1  UNL1       -0.5068
      7 C           3.7702   -1.5960    0.0000 C.3     1  UNL1        0.0263
      8 C           4.6641   -2.1306    0.0000 C.ar    1  UNL1        0.0460
      9 C           2.8641   -2.1098    0.0000 C.3     1  UNL1        0.0564
     10 C           5.5301   -1.6306    0.0000 C.ar    1  UNL1        0.1500
     11 C           3.7817   -0.5961    0.0000 C.ar    1  UNL1       -0.0392
     12 C           4.6641   -3.1306    0.0000 C.ar    1  UNL1        0.1424
     13 C           6.3961   -2.1306    0.0000 C.ar    1  UNL1        0.1058
     14 C           2.8641   -3.1515    0.0000 C.2     1  UNL1        0.3132
     15 C           5.5301   -3.6306    0.0000 C.ar    1  UNL1        0.0235
     16 C           6.3961   -3.1306    0.0000 C.ar    1  UNL1        0.1347
     17 C           4.6535   -0.1061    0.0000 C.ar    1  UNL1       -0.0580
     18 C           2.9215   -0.0861    0.0000 C.ar    1  UNL1       -0.0580
     19 C           7.3062   -1.6238    0.0000 C.ar    1  UNL1        0.1966
     20 C           6.4121   -0.0614    0.0000 C.ar    1  UNL1        0.1392
     21 C           7.3142   -0.5822    0.0000 C.ar    1  UNL1        0.0288
     22 C           4.6650    0.8938    0.0000 C.ar    1  UNL1       -0.0615
     23 C           2.9331    0.9139    0.0000 C.ar    1  UNL1       -0.0615
     24 C           6.4082    0.9386    0.0000 C.ar    1  UNL1        0.0176
     25 C           3.8048    1.4038    0.0000 C.ar    1  UNL1       -0.0617
     26 C           7.2723    1.4419    0.0000 C.ar    1  UNL1       -0.0476
     27 C           5.5403    1.4353    0.0000 C.ar    1  UNL1       -0.0476
     28 C           7.2685    2.4419    0.0000 C.ar    1  UNL1       -0.0195
     29 C           5.5364    2.4353    0.0000 C.ar    1  UNL1       -0.0195
     30 C           6.4005    2.9386    0.0000 C.ar    1  UNL1        0.1169
     31 H           3.2362   -1.2808    0.0000 H       1  UNL1        0.0405
     32 H           2.6550   -1.5261    0.0000 H       1  UNL1        0.0387
     33 H           2.2532   -2.2159    0.0000 H       1  UNL1        0.0387
     34 H           5.5301   -4.2506    0.0000 H       1  UNL1        0.0691
     35 H           5.1868   -0.4223    0.0000 H       1  UNL1        0.0620
     36 H           2.3810   -0.3898    0.0000 H       1  UNL1        0.0620
     37 H           7.8523   -0.2743    0.0000 H       1  UNL1        0.0693
     38 H           5.2055    1.1976    0.0000 H       1  UNL1        0.0618
     39 H           2.3998    1.2300    0.0000 H       1  UNL1        0.0618
     40 H           3.8120    2.0238    0.0000 H       1  UNL1        0.0618
     41 H           7.2622   -4.2506    0.0000 H       1  UNL1        0.2922
     42 H           7.8105    1.1340    0.0000 H       1  UNL1        0.0626
     43 H           5.0046    1.1232    0.0000 H       1  UNL1        0.0626
     44 H           7.8042    2.7540    0.0000 H       1  UNL1        0.0654
     45 H           4.9983    2.7432    0.0000 H       1  UNL1        0.0654
     46 H           6.9324    4.2506    0.0000 H       1  UNL1        0.2921
@<TRIPOS>BOND
     1     1    12    1
     2     1    14    1
     3     2    10   ar
     4     2    20   ar
     5     3    16    1
     6     3    41    1
     7     4    14    2
     8     5    19    2
     9     6    30    1
    10     6    46    1
    11     7     8    1
    12     7     9    1
    13     7    11    1
    14     7    31    1
    15     8    10   ar
    16     8    12   ar
    17     9    14    1
    18     9    32    1
    19     9    33    1
    20    10    13   ar
    21    11    17   ar
    22    11    18   ar
    23    12    15   ar
    24    13    16   ar
    25    13    19   ar
    26    15    16   ar
    27    15    34    1
    28    17    22   ar
    29    17    35    1
    30    18    23   ar
    31    18    36    1
    32    19    21   ar
    33    20    21   ar
    34    20    24    1
    35    21    37    1
    36    22    25   ar
    37    22    38    1
    38    23    25   ar
    39    23    39    1
    40    24    26   ar
    41    24    27   ar
    42    25    40    1
    43    26    28   ar
    44    26    42    1
    45    27    29   ar
    46    27    43    1
    47    28    30   ar
    48    28    44    1
    49    29    30   ar
    50    29    45    1
