@<TRIPOS>MOLECULE
IMPHY013606
 103 108 0 0 0
SMALL
GASTEIGER

@<TRIPOS>ATOM
      1 O          11.2303    2.1972    0.0000 O.3     1  UNL1       -0.3877
      2 O           7.7624    3.1838    0.0000 O.3     1  UNL1       -0.3886
      3 O           7.7701    1.1838    0.0000 O.3     1  UNL1       -0.3889
      4 O           9.4651   -3.0064    0.0000 O.3     1  UNL1       -0.3454
      5 O           9.3361    5.8565    0.0000 O.3     1  UNL1       -0.3918
      6 O           7.7331   -3.0064    0.0000 O.3     1  UNL1       -0.3431
      7 O           9.4651   -5.0064    0.0000 O.3     1  UNL1       -0.3841
      8 O           7.7331   -6.0064    0.0000 O.3     1  UNL1       -0.3864
      9 O           6.0010   -5.0064    0.0000 O.3     1  UNL1       -0.3402
     10 O           5.1350   -3.5064    0.0000 O.3     1  UNL1       -0.3405
     11 O           4.2690   -6.0064    0.0000 O.3     1  UNL1       -0.3841
     12 O           2.5369   -5.0064    0.0000 O.3     1  UNL1       -0.3864
     13 O           2.5369   -3.0064    0.0000 O.3     1  UNL1       -0.3865
     14 O           5.1350   -1.5064    0.0000 O.3     1  UNL1       -0.3924
     15 C          10.3623    2.6938    0.0000 C.3     1  UNL1        0.0774
     16 C           9.4944    3.1905    0.0000 C.3     1  UNL1        0.0304
     17 C          10.3662    1.6938    0.0000 C.3     1  UNL1       -0.0058
     18 C           9.5021    1.1905    0.0000 C.3     1  UNL1       -0.0014
     19 C           9.4901    0.1489    0.0000 C.3     1  UNL1       -0.0235
     20 C           8.6303    2.6871    0.0000 C.3     1  UNL1        0.0896
     21 C           9.6999    4.1631    0.0000 C.3     1  UNL1       -0.0047
     22 C           8.6342    1.6872    0.0000 C.3     1  UNL1        0.0853
     23 C          10.3901   -0.3754    0.0000 C.3     1  UNL1       -0.0329
     24 C          11.0968    3.3637    0.0000 C.3     1  UNL1       -0.0228
     25 C          11.2781    1.1905    0.0000 C.3     1  UNL1       -0.0470
     26 C          10.6882    4.2700    0.0000 C.3     1  UNL1       -0.0446
     27 C          11.2902    0.1489    0.0000 C.3     1  UNL1       -0.0493
     28 C           8.5402   -0.3754    0.0000 C.3     1  UNL1       -0.0447
     29 C           8.6264    3.6871    0.0000 C.3     1  UNL1       -0.0541
     30 C          10.4027   -1.4603    0.0000 C.3     1  UNL1       -0.0232
     31 C           8.6260    0.6523    0.0000 C.3     1  UNL1       -0.0590
     32 C           9.0292    4.9048    0.0000 C.3     1  UNL1        0.0559
     33 C           8.5276   -1.4603    0.0000 C.3     1  UNL1       -0.0260
     34 C           9.4651   -2.0064    0.0000 C.3     1  UNL1        0.0621
     35 C           8.0514    4.6948    0.0000 C.3     1  UNL1       -0.0387
     36 C           8.5991   -3.5064    0.0000 C.3     1  UNL1        0.1881
     37 C           8.5991   -4.5064    0.0000 C.3     1  UNL1        0.1341
     38 C           7.7331   -5.0064    0.0000 C.3     1  UNL1        0.1143
     39 C           6.8671   -3.5064    0.0000 C.3     1  UNL1        0.0877
     40 C           6.8671   -4.5064    0.0000 C.3     1  UNL1        0.1160
     41 C           6.0010   -3.0064    0.0000 C.3     1  UNL1       -0.0361
     42 C           5.1350   -4.5064    0.0000 C.3     1  UNL1        0.1884
     43 C           4.2690   -5.0064    0.0000 C.3     1  UNL1        0.1341
     44 C           3.4030   -4.5064    0.0000 C.3     1  UNL1        0.1141
     45 C           4.2690   -3.0064    0.0000 C.3     1  UNL1        0.1130
     46 C           3.4030   -3.5064    0.0000 C.3     1  UNL1        0.1119
     47 C           4.2690   -2.0064    0.0000 C.3     1  UNL1        0.0730
     48 H          11.0974    2.1273    0.0000 H       1  UNL1        0.0332
     49 H          10.2366    0.7627    0.0000 H       1  UNL1        0.0335
     50 H           8.0946    2.3751    0.0000 H       1  UNL1        0.0626
     51 H           9.9206    4.7425    0.0000 H       1  UNL1        0.0333
     52 H           8.6366    1.0672    0.0000 H       1  UNL1        0.0622
     53 H          10.9294   -0.6812    0.0000 H       1  UNL1        0.0307
     54 H          11.4642    2.8643    0.0000 H       1  UNL1        0.0293
     55 H          11.6321    3.6766    0.0000 H       1  UNL1        0.0293
     56 H          11.8902    1.0915    0.0000 H       1  UNL1        0.0269
     57 H          11.4804    1.7766    0.0000 H       1  UNL1        0.0269
     58 H          11.2770    4.4640    0.0000 H       1  UNL1        0.0270
     59 H          10.5571    4.8759    0.0000 H       1  UNL1        0.0270
     60 H          11.5060   -0.4323    0.0000 H       1  UNL1        0.0268
     61 H          11.8998    0.2621    0.0000 H       1  UNL1        0.0268
     62 H           8.3379    0.2107    0.0000 H       1  UNL1        0.0271
     63 H           7.9281   -0.4744    0.0000 H       1  UNL1        0.0271
     64 H           8.9344    4.2253    0.0000 H       1  UNL1        0.0237
     65 H           8.0883    3.9951    0.0000 H       1  UNL1        0.0237
     66 H           8.3185    3.1490    0.0000 H       1  UNL1        0.0237
     67 H          10.6185   -2.0415    0.0000 H       1  UNL1        0.0293
     68 H          11.0123   -1.3471    0.0000 H       1  UNL1        0.0293
     69 H           8.9380    1.1880    0.0000 H       1  UNL1        0.0235
     70 H           8.0902    0.9643    0.0000 H       1  UNL1        0.0235
     71 H           8.3139    0.1165    0.0000 H       1  UNL1        0.0235
     72 H           9.6353    5.0350    0.0000 H       1  UNL1        0.0593
     73 H           7.9180   -1.3471    0.0000 H       1  UNL1        0.0290
     74 H           8.3118   -2.0415    0.0000 H       1  UNL1        0.0290
     75 H          10.0027   -2.3154    0.0000 H       1  UNL1        0.0597
     76 H          11.7660    2.5092    0.0000 H       1  UNL1        0.2102
     77 H           7.2266    2.8717    0.0000 H       1  UNL1        0.2099
     78 H           7.2319    1.4917    0.0000 H       1  UNL1        0.2099
     79 H           7.9212    5.3010    0.0000 H       1  UNL1        0.0255
     80 H           7.4453    4.5646    0.0000 H       1  UNL1        0.0255
     81 H           8.1816    4.0886    0.0000 H       1  UNL1        0.0255
     82 H           8.9203    6.3164    0.0000 H       1  UNL1        0.2098
     83 H           8.5991   -2.8864    0.0000 H       1  UNL1        0.0937
     84 H           9.1360   -4.1964    0.0000 H       1  UNL1        0.0671
     85 H           8.2700   -5.3164    0.0000 H       1  UNL1        0.0648
     86 H           6.8671   -2.8864    0.0000 H       1  UNL1        0.0621
     87 H           6.3301   -4.1964    0.0000 H       1  UNL1        0.0650
     88 H          10.0021   -4.6964    0.0000 H       1  UNL1        0.2101
     89 H           6.3110   -2.4695    0.0000 H       1  UNL1        0.0255
     90 H           5.4641   -2.6964    0.0000 H       1  UNL1        0.0255
     91 H           5.6910   -3.5433    0.0000 H       1  UNL1        0.0255
     92 H           8.2700   -6.3164    0.0000 H       1  UNL1        0.2100
     93 H           5.1350   -5.1264    0.0000 H       1  UNL1        0.0938
     94 H           3.7320   -5.3164    0.0000 H       1  UNL1        0.0671
     95 H           2.8660   -4.1964    0.0000 H       1  UNL1        0.0648
     96 H           4.8059   -2.6964    0.0000 H       1  UNL1        0.0647
     97 H           3.4030   -2.8864    0.0000 H       1  UNL1        0.0647
     98 H           3.7320   -6.3164    0.0000 H       1  UNL1        0.2101
     99 H           4.0569   -1.4238    0.0000 H       1  UNL1        0.0584
    100 H           3.6584   -2.1141    0.0000 H       1  UNL1        0.0584
    101 H           2.0000   -4.6964    0.0000 H       1  UNL1        0.2100
    102 H           2.5369   -2.3864    0.0000 H       1  UNL1        0.2100
    103 H           5.1350   -0.8864    0.0000 H       1  UNL1        0.2095
@<TRIPOS>BOND
     1    15     1    1
     2     1    76    1
     3    20     2    1
     4     2    77    1
     5    22     3    1
     6     3    78    1
     7    34     4    1
     8    36     4    1
     9     5    32    1
    10     5    82    1
    11     6    36    1
    12     6    39    1
    13    37     7    1
    14     7    88    1
    15    38     8    1
    16     8    92    1
    17    40     9    1
    18    42     9    1
    19    10    42    1
    20    10    45    1
    21    43    11    1
    22    11    98    1
    23    44    12    1
    24    12   101    1
    25    46    13    1
    26    13   102    1
    27    14    47    1
    28    14   103    1
    29    15    16    1
    30    15    17    1
    31    15    24    1
    32    16    20    1
    33    16    21    1
    34    16    29    1
    35    17    18    1
    36    17    25    1
    37    17    48    1
    38    18    19    1
    39    18    22    1
    40    18    49    1
    41    19    23    1
    42    19    28    1
    43    19    31    1
    44    20    22    1
    45    20    50    1
    46    21    26    1
    47    21    32    1
    48    21    51    1
    49    22    52    1
    50    23    27    1
    51    23    30    1
    52    23    53    1
    53    24    26    1
    54    24    54    1
    55    24    55    1
    56    25    27    1
    57    25    56    1
    58    25    57    1
    59    26    58    1
    60    26    59    1
    61    27    60    1
    62    27    61    1
    63    28    33    1
    64    28    62    1
    65    28    63    1
    66    29    64    1
    67    29    65    1
    68    29    66    1
    69    30    34    1
    70    30    67    1
    71    30    68    1
    72    31    69    1
    73    31    70    1
    74    31    71    1
    75    32    35    1
    76    32    72    1
    77    33    34    1
    78    33    73    1
    79    33    74    1
    80    34    75    1
    81    35    79    1
    82    35    80    1
    83    35    81    1
    84    36    37    1
    85    36    83    1
    86    37    38    1
    87    37    84    1
    88    38    40    1
    89    38    85    1
    90    39    40    1
    91    39    41    1
    92    39    86    1
    93    40    87    1
    94    41    89    1
    95    41    90    1
    96    41    91    1
    97    42    43    1
    98    42    93    1
    99    43    44    1
   100    43    94    1
   101    44    46    1
   102    44    95    1
   103    45    46    1
   104    45    47    1
   105    45    96    1
   106    46    97    1
   107    47    99    1
   108    47   100    1
