@<TRIPOS>MOLECULE
IMPHY016541
 37 38 0 0 0
SMALL
GASTEIGER

@<TRIPOS>ATOM
      1 O           4.4150   -1.6804    0.0000 O.3     1  UNL1       -0.4608
      2 O           2.8452   -0.9484    0.0000 O.2     1  UNL1       -0.2509
      3 C           6.2103   -0.1821    0.0000 C.3     1  UNL1        0.0104
      4 C           5.7325    1.7665    0.0000 C.3     1  UNL1       -0.0232
      5 C           6.4692    0.7839    0.0000 C.3     1  UNL1       -0.0319
      6 C           4.8376   -0.7741    0.0000 C.3     1  UNL1        0.1092
      7 C           7.6093   -0.6909    0.0000 C.3     1  UNL1       -0.0435
      8 C           4.4956    0.1656    0.0000 C.3     1  UNL1       -0.0118
      9 C           7.8681    0.2750    0.0000 C.3     1  UNL1       -0.0490
     10 C           5.9515   -1.1480    0.0000 C.3     1  UNL1       -0.0557
     11 C           5.8371    2.7610    0.0000 C.3     1  UNL1       -0.0589
     12 C           4.8190    2.1732    0.0000 C.3     1  UNL1       -0.0589
     13 C           3.4188   -1.7675    0.0000 C.2     1  UNL1        0.3071
     14 C           2.9962   -2.6738    0.0000 C.3     1  UNL1        0.0421
     15 C           2.0000   -2.7610    0.0000 C.3     1  UNL1       -0.0552
     16 H           6.4551    0.1640    0.0000 H       1  UNL1        0.0307
     17 H           5.2696   -1.2188    0.0000 H       1  UNL1        0.0739
     18 H           7.4143   -1.2794    0.0000 H       1  UNL1        0.0272
     19 H           8.2032   -0.8686    0.0000 H       1  UNL1        0.0272
     20 H           4.3013    0.7544    0.0000 H       1  UNL1        0.0304
     21 H           3.9098   -0.0376    0.0000 H       1  UNL1        0.0304
     22 H           8.4621    0.0973    0.0000 H       1  UNL1        0.0268
     23 H           8.0630    0.8636    0.0000 H       1  UNL1        0.0268
     24 H           5.3526   -0.9875    0.0000 H       1  UNL1        0.0236
     25 H           5.7910   -1.7469    0.0000 H       1  UNL1        0.0236
     26 H           6.5504   -1.3084    0.0000 H       1  UNL1        0.0236
     27 H           6.4537    2.6962    0.0000 H       1  UNL1        0.0235
     28 H           5.9019    3.3776    0.0000 H       1  UNL1        0.0235
     29 H           5.2205    2.8258    0.0000 H       1  UNL1        0.0235
     30 H           5.0712    2.7396    0.0000 H       1  UNL1        0.0235
     31 H           4.2526    2.4254    0.0000 H       1  UNL1        0.0235
     32 H           4.5668    1.6068    0.0000 H       1  UNL1        0.0235
     33 H           2.9422   -3.2915    0.0000 H       1  UNL1        0.0375
     34 H           3.5951   -2.8343    0.0000 H       1  UNL1        0.0375
     35 H           1.9460   -2.1434    0.0000 H       1  UNL1        0.0235
     36 H           1.3824   -2.8150    0.0000 H       1  UNL1        0.0235
     37 H           2.0540   -3.3786    0.0000 H       1  UNL1        0.0235
@<TRIPOS>BOND
     1     1     6    1
     2     1    13    1
     3     2    13    2
     4     3     4    1
     5     3     6    1
     6     3     7    1
     7     3    10    1
     8     4     5    1
     9     4    11    1
    10     4    12    1
    11     5     8    1
    12     5     9    1
    13     5    16    1
    14     6     8    1
    15     6    17    1
    16     7     9    1
    17     7    18    1
    18     7    19    1
    19     8    20    1
    20     8    21    1
    21     9    22    1
    22     9    23    1
    23    10    24    1
    24    10    25    1
    25    10    26    1
    26    11    27    1
    27    11    28    1
    28    11    29    1
    29    12    30    1
    30    12    31    1
    31    12    32    1
    32    13    14    1
    33    14    15    1
    34    14    33    1
    35    14    34    1
    36    15    35    1
    37    15    36    1
    38    15    37    1
