@<TRIPOS>MOLECULE
IMPHY000063
 38 40 0 0 0
SMALL
GASTEIGER

@<TRIPOS>ATOM
      1 O           2.0000   -0.4070    0.0000 O.3     1  UNL1       -0.3865
      2 O           2.2729    1.3482    0.0000 O.2     1  UNL1       -0.2448
      3 O           2.2729   -2.1623    0.0000 O.2     1  UNL1       -0.2448
      4 C           5.2619    0.0930    0.0000 C.3     1  UNL1       -0.0260
      5 C           4.3958    0.5930    0.0000 C.3     1  UNL1        0.0035
      6 C           6.1719    0.5998    0.0000 C.3     1  UNL1       -0.0312
      7 C           4.3798    1.6345    0.0000 C.3     1  UNL1       -0.0431
      8 C           6.1799    1.6414    0.0000 C.3     1  UNL1       -0.0476
      9 C           5.2619   -0.9070    0.0000 C.3     1  UNL1       -0.0447
     10 C           5.2778    2.1623    0.0000 C.3     1  UNL1       -0.0518
     11 C           3.5298    0.0930    0.0000 C.2     1  UNL1        0.0531
     12 C           4.3958   -1.4070    0.0000 C.3     1  UNL1       -0.0201
     13 C           3.5298    1.0930    0.0000 C.3     1  UNL1       -0.0550
     14 C           7.1718    0.5883    0.0000 C.3     1  UNL1       -0.0595
     15 C           6.6618   -0.2719    0.0000 C.3     1  UNL1       -0.0595
     16 C           3.5298   -0.9070    0.0000 C.2     1  UNL1        0.0475
     17 C           2.5836    0.3977    0.0000 C.2     1  UNL1        0.3437
     18 C           2.5836   -1.2117    0.0000 C.2     1  UNL1        0.3432
     19 H           5.9947   -0.3377    0.0000 H       1  UNL1        0.0314
     20 H           4.1618    2.2149    0.0000 H       1  UNL1        0.0274
     21 H           3.7706    1.5190    0.0000 H       1  UNL1        0.0274
     22 H           6.7899    1.5306    0.0000 H       1  UNL1        0.0271
     23 H           6.3935    2.2235    0.0000 H       1  UNL1        0.0271
     24 H           5.4739   -1.4896    0.0000 H       1  UNL1        0.0272
     25 H           5.8725   -0.7993    0.0000 H       1  UNL1        0.0272
     26 H           5.6751    2.6382    0.0000 H       1  UNL1        0.0266
     27 H           4.8769    2.6352    0.0000 H       1  UNL1        0.0266
     28 H           3.9973   -1.8820    0.0000 H       1  UNL1        0.0316
     29 H           4.7944   -1.8820    0.0000 H       1  UNL1        0.0316
     30 H           3.8398    1.6299    0.0000 H       1  UNL1        0.0238
     31 H           2.9929    1.4030    0.0000 H       1  UNL1        0.0238
     32 H           3.2198    0.5561    0.0000 H       1  UNL1        0.0238
     33 H           7.1646   -0.0317    0.0000 H       1  UNL1        0.0235
     34 H           7.7918    0.5811    0.0000 H       1  UNL1        0.0235
     35 H           7.1790    1.2082    0.0000 H       1  UNL1        0.0235
     36 H           6.1213   -0.5757    0.0000 H       1  UNL1        0.0235
     37 H           6.9656   -0.8124    0.0000 H       1  UNL1        0.0235
     38 H           7.2023    0.0319    0.0000 H       1  UNL1        0.0235
@<TRIPOS>BOND
     1     1    17    1
     2     1    18    1
     3     2    17    2
     4     3    18    2
     5     4     5    1
     6     4     6    1
     7     4     9    1
     8     4    19    1
     9     5     7    1
    10     5    11    1
    11     5    13    1
    12     6     8    1
    13     6    14    1
    14     6    15    1
    15     7    10    1
    16     7    20    1
    17     7    21    1
    18     8    10    1
    19     8    22    1
    20     8    23    1
    21     9    12    1
    22     9    24    1
    23     9    25    1
    24    10    26    1
    25    10    27    1
    26    11    16    2
    27    11    17    1
    28    12    16    1
    29    12    28    1
    30    12    29    1
    31    13    30    1
    32    13    31    1
    33    13    32    1
    34    14    33    1
    35    14    34    1
    36    14    35    1
    37    15    36    1
    38    15    37    1
    39    15    38    1
    40    16    18    1
