@<TRIPOS>MOLECULE
IMPHY006034
 20 20 0 0 0
SMALL
GASTEIGER

@<TRIPOS>ATOM
      1 N           2.8660    0.7500    0.0000 N.pl3   1  UNL1       -0.3441
      2 C           2.8660   -0.2500    0.0000 C.ar    1  UNL1        0.0271
      3 C           3.7320    1.2500    0.0000 C.3     1  UNL1        0.0063
      4 C           2.0000   -0.7500    0.0000 C.ar    1  UNL1       -0.0409
      5 C           3.7320   -0.7500    0.0000 C.ar    1  UNL1       -0.0409
      6 C           3.7320    2.2500    0.0000 C.3     1  UNL1       -0.0496
      7 C           2.0000   -1.7500    0.0000 C.ar    1  UNL1       -0.0600
      8 C           3.7320   -1.7500    0.0000 C.ar    1  UNL1       -0.0600
      9 C           2.8660   -2.2500    0.0000 C.ar    1  UNL1       -0.0616
     10 H           3.9441    0.6674    0.0000 H       1  UNL1        0.0458
     11 H           4.3426    1.3577    0.0000 H       1  UNL1        0.0458
     12 H           2.3291    1.0600    0.0000 H       1  UNL1        0.1461
     13 H           1.4631   -0.4400    0.0000 H       1  UNL1        0.0636
     14 H           4.2690   -0.4400    0.0000 H       1  UNL1        0.0636
     15 H           4.3520    2.2500    0.0000 H       1  UNL1        0.0245
     16 H           3.7320    2.8700    0.0000 H       1  UNL1        0.0245
     17 H           3.1120    2.2500    0.0000 H       1  UNL1        0.0245
     18 H           1.4631   -2.0600    0.0000 H       1  UNL1        0.0618
     19 H           4.2690   -2.0600    0.0000 H       1  UNL1        0.0618
     20 H           2.8660   -2.8700    0.0000 H       1  UNL1        0.0618
@<TRIPOS>BOND
     1     1     2    1
     2     1     3    1
     3     1    12    1
     4     2     4   ar
     5     2     5   ar
     6     3     6    1
     7     3    10    1
     8     3    11    1
     9     4     7   ar
    10     4    13    1
    11     5     8   ar
    12     5    14    1
    13     6    15    1
    14     6    16    1
    15     6    17    1
    16     7     9   ar
    17     7    18    1
    18     8     9   ar
    19     8    19    1
    20     9    20    1
