@<TRIPOS>MOLECULE
IMPHY006833
 70 72 0 0 0
SMALL
GASTEIGER

@<TRIPOS>ATOM
      1 O           5.1350   -1.0950    0.0000 O.3     1  UNL1       -0.3404
      2 O           6.8671   -1.0950    0.0000 O.3     1  UNL1       -0.3093
      3 O           6.0010    0.4050    0.0000 O.2     1  UNL1       -0.4699
      4 O           6.8671   -3.0950    0.0000 O.3     1  UNL1       -0.3841
      5 O           5.1350   -4.0950    0.0000 O.3     1  UNL1       -0.3864
      6 O           3.4030   -3.0950    0.0000 O.3     1  UNL1       -0.3865
      7 O           2.5369   -1.5950    0.0000 O.3     1  UNL1       -0.3924
      8 O          10.3312    1.9050    0.0000 O.3     1  UNL1       -0.4643
      9 O           6.0010    3.4050    0.0000 O.3     1  UNL1       -0.4646
     10 O           9.4651    0.4050    0.0000 O.2     1  UNL1       -0.2508
     11 O           7.7331    3.4050    0.0000 O.2     1  UNL1       -0.2452
     12 O          13.7953   -1.0950    0.0000 O.3     1  UNL1       -0.5033
     13 O          15.5273   -0.0950    0.0000 O.3     1  UNL1       -0.5033
     14 C           6.0010   -2.5950    0.0000 C.3     1  UNL1        0.1342
     15 C           5.1350   -3.0950    0.0000 C.3     1  UNL1        0.1141
     16 C           6.0010   -1.5950    0.0000 C.3     1  UNL1        0.1918
     17 C           4.2690   -2.5950    0.0000 C.3     1  UNL1        0.1119
     18 C           7.7331    0.4050    0.0000 C.3     1  UNL1        0.0471
     19 C           4.2690   -1.5950    0.0000 C.3     1  UNL1        0.1130
     20 C           7.7331    1.4050    0.0000 C.3     1  UNL1        0.0158
     21 C           6.8671   -0.0950    0.0000 C.3     1  UNL1        0.2102
     22 C           6.8671    1.9050    0.0000 C.2     1  UNL1        0.0751
     23 C           8.5991    1.9050    0.0000 C.3     1  UNL1        0.0528
     24 C           3.4030   -1.0950    0.0000 C.3     1  UNL1        0.0730
     25 C           8.5991   -0.0950    0.0000 C.2     1  UNL1       -0.0816
     26 C           6.0010    1.4050    0.0000 C.2     1  UNL1        0.0981
     27 C           9.4651    1.4050    0.0000 C.2     1  UNL1        0.3077
     28 C           6.8671    2.9050    0.0000 C.2     1  UNL1        0.3381
     29 C           8.5991   -1.0950    0.0000 C.2     1  UNL1       -0.1022
     30 C          11.1972    1.4050    0.0000 C.3     1  UNL1        0.0964
     31 C          12.0632    1.9050    0.0000 C.3     1  UNL1        0.0069
     32 C           6.0010    4.4050    0.0000 C.3     1  UNL1        0.0820
     33 C          12.9292    1.4050    0.0000 C.ar    1  UNL1       -0.0405
     34 C          12.9292    0.4050    0.0000 C.ar    1  UNL1       -0.0132
     35 C          13.7953    1.9050    0.0000 C.ar    1  UNL1       -0.0548
     36 C          13.7953   -0.0950    0.0000 C.ar    1  UNL1        0.1585
     37 C          14.6613    1.4050    0.0000 C.ar    1  UNL1       -0.0163
     38 C          14.6613    0.4050    0.0000 C.ar    1  UNL1        0.1582
     39 H           6.0010   -3.2150    0.0000 H       1  UNL1        0.0671
     40 H           4.5981   -3.4050    0.0000 H       1  UNL1        0.0648
     41 H           6.0010   -0.9750    0.0000 H       1  UNL1        0.0939
     42 H           3.7320   -2.2850    0.0000 H       1  UNL1        0.0647
     43 H           8.2700    0.7150    0.0000 H       1  UNL1        0.0410
     44 H           4.2690   -0.9750    0.0000 H       1  UNL1        0.0647
     45 H           7.7331    2.0250    0.0000 H       1  UNL1        0.0365
     46 H           7.4040   -0.4050    0.0000 H       1  UNL1        0.1062
     47 H           8.9976    2.3800    0.0000 H       1  UNL1        0.0384
     48 H           8.2006    2.3800    0.0000 H       1  UNL1        0.0384
     49 H           3.8015   -0.6201    0.0000 H       1  UNL1        0.0584
     50 H           3.0044   -0.6201    0.0000 H       1  UNL1        0.0584
     51 H           9.1360    0.2150    0.0000 H       1  UNL1        0.0571
     52 H           5.4641    1.7150    0.0000 H       1  UNL1        0.1029
     53 H           6.8671   -3.7150    0.0000 H       1  UNL1        0.2101
     54 H           4.5981   -4.4050    0.0000 H       1  UNL1        0.2100
     55 H           3.4030   -3.7150    0.0000 H       1  UNL1        0.2100
     56 H           8.0622   -1.4050    0.0000 H       1  UNL1        0.0532
     57 H           9.1360   -1.4050    0.0000 H       1  UNL1        0.0532
     58 H           2.0000   -1.2850    0.0000 H       1  UNL1        0.2095
     59 H          10.7987    0.9301    0.0000 H       1  UNL1        0.0701
     60 H          11.5957    0.9301    0.0000 H       1  UNL1        0.0701
     61 H          12.4617    2.3800    0.0000 H       1  UNL1        0.0346
     62 H          11.6647    2.3800    0.0000 H       1  UNL1        0.0346
     63 H           6.6210    4.4050    0.0000 H       1  UNL1        0.0661
     64 H           6.0010    5.0250    0.0000 H       1  UNL1        0.0661
     65 H           5.3810    4.4050    0.0000 H       1  UNL1        0.0661
     66 H          12.3923    0.0950    0.0000 H       1  UNL1        0.0658
     67 H          13.7953    2.5250    0.0000 H       1  UNL1        0.0621
     68 H          15.1982    1.7150    0.0000 H       1  UNL1        0.0655
     69 H          14.3322   -1.4050    0.0000 H       1  UNL1        0.2923
     70 H          16.0643    0.2150    0.0000 H       1  UNL1        0.2923
@<TRIPOS>BOND
     1     1    16    1
     2     1    19    1
     3    16     2    1
     4    21     2    1
     5     3    21    1
     6     3    26    1
     7    14     4    1
     8     4    53    1
     9    15     5    1
    10     5    54    1
    11    17     6    1
    12     6    55    1
    13     7    24    1
    14     7    58    1
    15     8    27    1
    16     8    30    1
    17     9    28    1
    18     9    32    1
    19    10    27    2
    20    11    28    2
    21    12    36    1
    22    12    69    1
    23    13    38    1
    24    13    70    1
    25    14    15    1
    26    14    16    1
    27    14    39    1
    28    15    17    1
    29    15    40    1
    30    16    41    1
    31    17    19    1
    32    17    42    1
    33    18    20    1
    34    18    21    1
    35    18    25    1
    36    18    43    1
    37    19    24    1
    38    19    44    1
    39    20    22    1
    40    20    23    1
    41    20    45    1
    42    21    46    1
    43    22    26    2
    44    22    28    1
    45    23    27    1
    46    23    47    1
    47    23    48    1
    48    24    49    1
    49    24    50    1
    50    25    29    2
    51    25    51    1
    52    26    52    1
    53    29    56    1
    54    29    57    1
    55    30    31    1
    56    30    59    1
    57    30    60    1
    58    31    33    1
    59    31    61    1
    60    31    62    1
    61    32    63    1
    62    32    64    1
    63    32    65    1
    64    33    34   ar
    65    33    35   ar
    66    34    36   ar
    67    34    66    1
    68    35    37   ar
    69    35    67    1
    70    36    38   ar
    71    37    38   ar
    72    37    68    1
