@<TRIPOS>MOLECULE
IMPHY006831
 39 40 0 0 0
SMALL
GASTEIGER

@<TRIPOS>ATOM
      1 O          10.9250    0.2372    0.0000 O.3     1  UNL1       -0.3876
      2 O          10.3002   -2.0947    0.0000 O.3     1  UNL1       -0.3876
      3 O           5.4115   -1.3684    0.0000 O.3     1  UNL1       -0.4580
      4 O           4.8191    0.2592    0.0000 O.2     1  UNL1       -0.2453
      5 N           7.9234    1.2287    0.0000 N.3     1  UNL1       -0.2942
      6 C           8.6600    0.2461    0.0000 C.3     1  UNL1        0.0422
      7 C           8.4012   -0.7199    0.0000 C.3     1  UNL1        0.0422
      8 C          10.0590   -0.2628    0.0000 C.3     1  UNL1        0.0981
      9 C           9.8002   -1.2287    0.0000 C.3     1  UNL1        0.0981
     10 C           6.6268   -0.0651    0.0000 C.3     1  UNL1        0.0025
     11 C           7.1802   -1.5855    0.0000 C.3     1  UNL1        0.0025
     12 C           6.3512   -1.0263    0.0000 C.3     1  UNL1        0.1064
     13 C           7.4234    2.0947    0.0000 C.3     1  UNL1       -0.0120
     14 C           4.6454   -0.7256    0.0000 C.2     1  UNL1        0.3348
     15 C           3.7057   -1.0676    0.0000 C.2     1  UNL1        0.0293
     16 C           3.5321   -2.0524    0.0000 C.3     1  UNL1       -0.0333
     17 C           2.9397   -0.4248    0.0000 C.2     1  UNL1       -0.0774
     18 C           2.0000   -0.7668    0.0000 C.3     1  UNL1       -0.0461
     19 H           8.8800    1.0671    0.0000 H       1  UNL1        0.0490
     20 H           8.1812   -1.5409    0.0000 H       1  UNL1        0.0490
     21 H          10.5509   -0.6402    0.0000 H       1  UNL1        0.0635
     22 H           9.4017   -1.7037    0.0000 H       1  UNL1        0.0635
     23 H           6.6218    0.5549    0.0000 H       1  UNL1        0.0317
     24 H           6.0125    0.0187    0.0000 H       1  UNL1        0.0317
     25 H           6.7744   -2.0542    0.0000 H       1  UNL1        0.0317
     26 H           7.5969   -2.0446    0.0000 H       1  UNL1        0.0317
     27 H           6.2756   -1.6417    0.0000 H       1  UNL1        0.0735
     28 H           7.9604    2.4047    0.0000 H       1  UNL1        0.0391
     29 H           7.1134    2.6316    0.0000 H       1  UNL1        0.0391
     30 H           6.8865    1.7847    0.0000 H       1  UNL1        0.0391
     31 H          11.4619   -0.0728    0.0000 H       1  UNL1        0.2100
     32 H          10.9202   -2.0947    0.0000 H       1  UNL1        0.2100
     33 H           2.9215   -1.9447    0.0000 H       1  UNL1        0.0280
     34 H           3.4244   -2.6630    0.0000 H       1  UNL1        0.0280
     35 H           4.1427   -2.1600    0.0000 H       1  UNL1        0.0280
     36 H           3.0473    0.1858    0.0000 H       1  UNL1        0.0574
     37 H           1.7880   -0.1842    0.0000 H       1  UNL1        0.0272
     38 H           1.4174   -0.9789    0.0000 H       1  UNL1        0.0272
     39 H           2.2120   -1.3494    0.0000 H       1  UNL1        0.0272
@<TRIPOS>BOND
     1     8     1    1
     2     1    31    1
     3     9     2    1
     4     2    32    1
     5     3    12    1
     6     3    14    1
     7     4    14    2
     8     5     6    1
     9     5     7    1
    10     5    13    1
    11     6     8    1
    12     6    10    1
    13     6    19    1
    14     7     9    1
    15     7    11    1
    16     7    20    1
    17     8     9    1
    18     8    21    1
    19     9    22    1
    20    10    12    1
    21    10    23    1
    22    10    24    1
    23    11    12    1
    24    11    25    1
    25    11    26    1
    26    12    27    1
    27    13    28    1
    28    13    29    1
    29    13    30    1
    30    14    15    1
    31    15    16    1
    32    15    17    2
    33    16    33    1
    34    16    34    1
    35    16    35    1
    36    17    18    1
    37    17    36    1
    38    18    37    1
    39    18    38    1
    40    18    39    1
