@<TRIPOS>MOLECULE
IMPHY000410
 34 36 0 0 0
SMALL
GASTEIGER

@<TRIPOS>ATOM
      1 O           2.9757   -0.8238    0.0000 O.3     1  UNL1       -0.4947
      2 O           5.0981   -3.2247    0.0000 O.2     1  UNL1       -0.2927
      3 O           2.2264    2.6358    0.0000 O.3     1  UNL1       -0.5066
      4 C           5.0981   -0.2248    0.0000 C.3     1  UNL1        0.0185
      5 C           5.9071    0.3630    0.0000 C.3     1  UNL1       -0.0357
      6 C           4.2891    0.3630    0.0000 C.ar    1  UNL1        0.0076
      7 C           5.9641   -0.7248    0.0000 C.3     1  UNL1       -0.0327
      8 C           5.5981    1.3141    0.0000 C.3     1  UNL1       -0.0261
      9 C           4.5981    1.3141    0.0000 C.ar    1  UNL1       -0.0364
     10 C           4.2321   -0.7248    0.0000 C.2     1  UNL1       -0.0701
     11 C           5.9641   -1.7248    0.0000 C.3     1  UNL1        0.0109
     12 C           3.2737    0.1308    0.0000 C.ar    1  UNL1        0.1278
     13 C           4.2321   -1.7248    0.0000 C.2     1  UNL1       -0.0223
     14 C           3.9131    2.0988    0.0000 C.ar    1  UNL1       -0.0165
     15 C           5.0981   -2.2247    0.0000 C.2     1  UNL1        0.1559
     16 C           2.5707    0.8995    0.0000 C.ar    1  UNL1        0.0218
     17 C           2.8926    1.8901    0.0000 C.ar    1  UNL1        0.1206
     18 C           2.0000   -1.0430    0.0000 C.3     1  UNL1        0.0788
     19 H           6.2171   -0.1739    0.0000 H       1  UNL1        0.0280
     20 H           6.4735    0.6152    0.0000 H       1  UNL1        0.0280
     21 H           6.5747   -0.8324    0.0000 H       1  UNL1        0.0281
     22 H           6.1762   -0.1421    0.0000 H       1  UNL1        0.0281
     23 H           6.2046    1.4430    0.0000 H       1  UNL1        0.0314
     24 H           5.5333    1.9307    0.0000 H       1  UNL1        0.0314
     25 H           3.6951   -0.4148    0.0000 H       1  UNL1        0.0582
     26 H           6.1762   -2.3074    0.0000 H       1  UNL1        0.0345
     27 H           6.5747   -1.6171    0.0000 H       1  UNL1        0.0345
     28 H           3.6951   -2.0348    0.0000 H       1  UNL1        0.0649
     29 H           4.1115    2.6862    0.0000 H       1  UNL1        0.0657
     30 H           1.9648    0.7682    0.0000 H       1  UNL1        0.0691
     31 H           1.8641   -0.4381    0.0000 H       1  UNL1        0.0660
     32 H           1.3951   -1.1789    0.0000 H       1  UNL1        0.0660
     33 H           2.1359   -1.6479    0.0000 H       1  UNL1        0.0660
     34 H           2.4202    3.2247    0.0000 H       1  UNL1        0.2921
@<TRIPOS>BOND
     1     1    12    1
     2     1    18    1
     3     2    15    2
     4     3    17    1
     5     3    34    1
     6     4     5    1
     7     4     6    1
     8     4     7    1
     9     4    10    1
    10     5     8    1
    11     5    19    1
    12     5    20    1
    13     6     9   ar
    14     6    12   ar
    15     7    11    1
    16     7    21    1
    17     7    22    1
    18     8     9    1
    19     8    23    1
    20     8    24    1
    21     9    14   ar
    22    10    13    2
    23    10    25    1
    24    11    15    1
    25    11    26    1
    26    11    27    1
    27    12    16   ar
    28    13    15    1
    29    13    28    1
    30    14    17   ar
    31    14    29    1
    32    16    17   ar
    33    16    30    1
    34    18    31    1
    35    18    32    1
    36    18    33    1
