@<TRIPOS>MOLECULE
IMPHY008961
 58 61 0 0 0
SMALL
GASTEIGER

@<TRIPOS>ATOM
      1 O           6.0010    0.1550    0.0000 O.3     1  UNL1       -0.3092
      2 O           4.2690    0.1550    0.0000 O.3     1  UNL1       -0.3126
      3 O           5.1350    1.6550    0.0000 O.2     1  UNL1       -0.4707
      4 O           6.0010   -1.8450    0.0000 O.3     1  UNL1       -0.3841
      5 O           4.2690   -2.8450    0.0000 O.3     1  UNL1       -0.3863
      6 O           2.5369   -1.8450    0.0000 O.3     1  UNL1       -0.3837
      7 O           2.5369   -0.8450    0.0000 O.3     1  UNL1       -0.3608
      8 O           9.1024    0.1935    0.0000 O.3     1  UNL1       -0.4567
      9 O           2.5369    1.1550    0.0000 O.3     1  UNL1       -0.3896
     10 O           8.7453   -1.5013    0.0000 O.2     1  UNL1       -0.2450
     11 C           6.8671    1.6550    0.0000 C.3     1  UNL1        0.0524
     12 C           6.8671    2.6550    0.0000 C.3     1  UNL1       -0.0040
     13 C           6.0010    1.1550    0.0000 C.3     1  UNL1        0.2105
     14 C           7.8133    2.9597    0.0000 C.3     1  UNL1       -0.0273
     15 C           7.8133    1.3503    0.0000 C.2     1  UNL1       -0.0270
     16 C           5.1350   -0.3450    0.0000 C.3     1  UNL1        0.1947
     17 C           5.1350   -1.3450    0.0000 C.3     1  UNL1        0.1344
     18 C           4.2690   -1.8450    0.0000 C.3     1  UNL1        0.1167
     19 C           3.4030   -1.3450    0.0000 C.3     1  UNL1        0.1393
     20 C           3.4030   -0.3450    0.0000 C.3     1  UNL1        0.2224
     21 C           8.3969    2.1550    0.0000 C.2     1  UNL1       -0.0805
     22 C           6.0010    3.1550    0.0000 C.2     1  UNL1       -0.0454
     23 C           8.1240    0.3997    0.0000 C.3     1  UNL1        0.1144
     24 C           5.1350    2.6550    0.0000 C.2     1  UNL1        0.0843
     25 C           3.4030    0.6550    0.0000 C.3     1  UNL1        0.1007
     26 C           9.4131   -0.7570    0.0000 C.2     1  UNL1        0.3395
     27 C          10.3916   -0.9632    0.0000 C.ar    1  UNL1        0.0590
     28 C          10.7023   -1.9137    0.0000 C.ar    1  UNL1       -0.0478
     29 C          11.0595   -0.2189    0.0000 C.ar    1  UNL1       -0.0478
     30 C          11.6808   -2.1199    0.0000 C.ar    1  UNL1       -0.0610
     31 C          12.0380   -0.4251    0.0000 C.ar    1  UNL1       -0.0610
     32 C          12.3486   -1.3756    0.0000 C.ar    1  UNL1       -0.0617
     33 H           6.9570    0.8098    0.0000 H       1  UNL1        0.0413
     34 H           6.9570    3.5002    0.0000 H       1  UNL1        0.0355
     35 H           6.7372    0.7300    0.0000 H       1  UNL1        0.1062
     36 H           8.3507    3.2690    0.0000 H       1  UNL1        0.0313
     37 H           7.5622    3.5266    0.0000 H       1  UNL1        0.0313
     38 H           5.1350    0.2750    0.0000 H       1  UNL1        0.0940
     39 H           5.1350   -1.9650    0.0000 H       1  UNL1        0.0671
     40 H           3.7320   -2.1550    0.0000 H       1  UNL1        0.0649
     41 H           2.8660   -1.0350    0.0000 H       1  UNL1        0.0675
     42 H           9.0169    2.1550    0.0000 H       1  UNL1        0.0573
     43 H           6.0010    3.7750    0.0000 H       1  UNL1        0.0605
     44 H           7.5101    0.3124    0.0000 H       1  UNL1        0.0746
     45 H           8.1034   -0.2199    0.0000 H       1  UNL1        0.0746
     46 H           4.5981    2.9650    0.0000 H       1  UNL1        0.1021
     47 H           4.0135    0.5473    0.0000 H       1  UNL1        0.0612
     48 H           3.6150    1.2376    0.0000 H       1  UNL1        0.0612
     49 H           6.5380   -1.5350    0.0000 H       1  UNL1        0.2101
     50 H           4.8059   -3.1550    0.0000 H       1  UNL1        0.2100
     51 H           2.5369   -2.4650    0.0000 H       1  UNL1        0.2101
     52 H           2.0000   -0.5350    0.0000 H       1  UNL1        0.2129
     53 H           2.5369    1.7750    0.0000 H       1  UNL1        0.2096
     54 H          10.2882   -2.3752    0.0000 H       1  UNL1        0.0626
     55 H          10.8669    0.3704    0.0000 H       1  UNL1        0.0626
     56 H          11.8734   -2.7093    0.0000 H       1  UNL1        0.0618
     57 H          12.4520    0.0363    0.0000 H       1  UNL1        0.0618
     58 H          12.9553   -1.5035    0.0000 H       1  UNL1        0.0618
@<TRIPOS>BOND
     1     1    13    1
     2    16     1    1
     3     2    16    1
     4     2    20    1
     5     3    13    1
     6     3    24    1
     7    17     4    1
     8     4    49    1
     9    18     5    1
    10     5    50    1
    11    19     6    1
    12     6    51    1
    13    20     7    1
    14     7    52    1
    15     8    23    1
    16     8    26    1
    17     9    25    1
    18     9    53    1
    19    10    26    2
    20    11    12    1
    21    11    13    1
    22    11    15    1
    23    11    33    1
    24    12    14    1
    25    12    22    1
    26    12    34    1
    27    13    35    1
    28    14    21    1
    29    14    36    1
    30    14    37    1
    31    15    21    2
    32    15    23    1
    33    16    17    1
    34    16    38    1
    35    17    18    1
    36    17    39    1
    37    18    19    1
    38    18    40    1
    39    19    20    1
    40    19    41    1
    41    20    25    1
    42    21    42    1
    43    22    24    2
    44    22    43    1
    45    23    44    1
    46    23    45    1
    47    24    46    1
    48    25    47    1
    49    25    48    1
    50    26    27    1
    51    27    28   ar
    52    27    29   ar
    53    28    30   ar
    54    28    54    1
    55    29    31   ar
    56    29    55    1
    57    30    32   ar
    58    30    56    1
    59    31    32   ar
    60    31    57    1
    61    32    58    1
