@<TRIPOS>MOLECULE
IMPHY013004
 47 49 0 0 0
SMALL
GASTEIGER

@<TRIPOS>ATOM
      1 O           6.7619   -0.2237    0.0000 O.2     1  UNL1       -0.2905
      2 O           4.6318    2.3603    0.0000 O.3     1  UNL1       -0.3947
      3 N           9.7619   -1.9558    0.0000 N.3     1  UNL1       -0.3154
      4 N           4.6783   -1.8945    0.0000 N.ar    1  UNL1       -0.3517
      5 C           7.7619   -1.9558    0.0000 C.3     1  UNL1       -0.0254
      6 C           8.2619   -1.0898    0.0000 C.3     1  UNL1       -0.0074
      7 C           8.2619   -2.8218    0.0000 C.3     1  UNL1       -0.0366
      8 C           9.2619   -1.0898    0.0000 C.3     1  UNL1        0.0024
      9 C           6.7619   -1.9558    0.0000 C.3     1  UNL1        0.0154
     10 C           9.2619   -2.8218    0.0000 C.3     1  UNL1       -0.0038
     11 C           7.7619   -0.2237    0.0000 C.2     1  UNL1       -0.0865
     12 C           6.2619   -1.0898    0.0000 C.2     1  UNL1        0.1797
     13 C           5.2619   -1.0898    0.0000 C.ar    1  UNL1        0.0865
     14 C           4.6783   -0.2850    0.0000 C.ar    1  UNL1       -0.0094
     15 C           3.7320   -0.5897    0.0000 C.ar    1  UNL1        0.0036
     16 C           3.7320   -1.5898    0.0000 C.ar    1  UNL1        0.0472
     17 C           4.9889    0.6655    0.0000 C.3     1  UNL1       -0.0017
     18 C           8.2619    0.6423    0.0000 C.2     1  UNL1       -0.1023
     19 C           2.8660   -0.0897    0.0000 C.ar    1  UNL1       -0.0523
     20 C           2.8660   -2.0898    0.0000 C.ar    1  UNL1       -0.0378
     21 C           4.3211    1.4098    0.0000 C.3     1  UNL1        0.0483
     22 C           2.0000   -0.5897    0.0000 C.ar    1  UNL1       -0.0611
     23 C           2.0000   -1.5898    0.0000 C.ar    1  UNL1       -0.0598
     24 H           7.4519   -2.4927    0.0000 H       1  UNL1        0.0311
     25 H           8.5719   -0.5528    0.0000 H       1  UNL1        0.0358
     26 H           7.6793   -3.0338    0.0000 H       1  UNL1        0.0280
     27 H           8.3695   -3.4324    0.0000 H       1  UNL1        0.0280
     28 H           9.8445   -0.8777    0.0000 H       1  UNL1        0.0430
     29 H           9.1542   -0.4792    0.0000 H       1  UNL1        0.0430
     30 H           6.1793   -2.1678    0.0000 H       1  UNL1        0.0348
     31 H           6.8695   -2.5664    0.0000 H       1  UNL1        0.0348
     32 H           9.1542   -3.4324    0.0000 H       1  UNL1        0.0424
     33 H           9.8445   -3.0338    0.0000 H       1  UNL1        0.0424
     34 H          10.3819   -1.9558    0.0000 H       1  UNL1        0.1220
     35 H           7.1419   -0.2237    0.0000 H       1  UNL1        0.0570
     36 H           4.8709   -2.4838    0.0000 H       1  UNL1        0.1660
     37 H           5.5359    0.3735    0.0000 H       1  UNL1        0.0336
     38 H           5.3715    1.1534    0.0000 H       1  UNL1        0.0336
     39 H           8.8819    0.6423    0.0000 H       1  UNL1        0.0532
     40 H           7.9519    1.1792    0.0000 H       1  UNL1        0.0532
     41 H           2.8660    0.5303    0.0000 H       1  UNL1        0.0624
     42 H           2.8660   -2.7098    0.0000 H       1  UNL1        0.0638
     43 H           3.7742    1.7018    0.0000 H       1  UNL1        0.0560
     44 H           3.9385    0.9219    0.0000 H       1  UNL1        0.0560
     45 H           1.4631   -0.2797    0.0000 H       1  UNL1        0.0618
     46 H           1.4631   -1.8998    0.0000 H       1  UNL1        0.0618
     47 H           4.2177    2.8218    0.0000 H       1  UNL1        0.2094
@<TRIPOS>BOND
     1     1    12    2
     2     2    21    1
     3     2    47    1
     4     3     8    1
     5     3    10    1
     6     3    34    1
     7     4    13   ar
     8     4    16   ar
     9     4    36    1
    10     5     6    1
    11     5     7    1
    12     5     9    1
    13     5    24    1
    14     6     8    1
    15     6    11    1
    16     6    25    1
    17     7    10    1
    18     7    26    1
    19     7    27    1
    20     8    28    1
    21     8    29    1
    22     9    12    1
    23     9    30    1
    24     9    31    1
    25    10    32    1
    26    10    33    1
    27    11    18    2
    28    11    35    1
    29    12    13    1
    30    13    14   ar
    31    14    15   ar
    32    14    17    1
    33    15    16   ar
    34    15    19   ar
    35    16    20   ar
    36    17    21    1
    37    17    37    1
    38    17    38    1
    39    18    39    1
    40    18    40    1
    41    19    22   ar
    42    19    41    1
    43    20    23   ar
    44    20    42    1
    45    21    43    1
    46    21    44    1
    47    22    23   ar
    48    22    45    1
    49    23    46    1
