@<TRIPOS>MOLECULE
IMPHY010719
 32 35 0 0 0
SMALL
GASTEIGER

@<TRIPOS>ATOM
      1 O           5.9440   -1.8621    0.0000 O.3     1  UNL1       -0.3158
      2 O           5.1350   -0.2743    0.0000 O.3     1  UNL1       -0.4440
      3 O           4.0472   -3.6222    0.0000 O.3     1  UNL1       -0.2175
      4 O           3.3749   -1.5531    0.0000 O.3     1  UNL1       -0.2135
      5 O           7.2173   -3.5176    0.0000 O.3     1  UNL1       -0.2204
      6 O           6.8671    1.7257    0.0000 O.2     1  UNL1       -0.4500
      7 O           6.8671   -1.2743    0.0000 O.2     1  UNL1       -0.2830
      8 O           8.6155   -1.3089    0.0000 O.3     1  UNL1       -0.2862
      9 O          10.3972    1.7499    0.0000 O.3     1  UNL1       -0.2864
     10 O           4.2690    4.2257    0.0000 O.3     1  UNL1       -0.2831
     11 O           2.5369    3.2257    0.0000 O.3     1  UNL1       -0.2831
     12 C           5.6350   -2.8131    0.0000 C.3     1  UNL1        0.1820
     13 C           4.6350   -2.8131    0.0000 C.3     1  UNL1        0.2180
     14 C           4.3260   -1.8621    0.0000 C.3     1  UNL1        0.2540
     15 C           5.1350   -1.2743    0.0000 C.3     1  UNL1        0.3220
     16 C           6.2228   -3.6222    0.0000 C.3     1  UNL1        0.1817
     17 C           5.8161   -4.5357    0.0000 C.3     1  UNL1        0.0382
     18 C           6.0010    0.2257    0.0000 C.ar    1  UNL1        0.2144
     19 C           6.0010    1.2257    0.0000 C.ar    1  UNL1        0.1823
     20 C           6.8671   -0.2743    0.0000 C.ar    1  UNL1        0.2384
     21 C           7.7331    0.2257    0.0000 C.ar    1  UNL1        0.1156
     22 C           7.7331    1.2257    0.0000 C.ar    1  UNL1        0.1549
     23 C           5.1350    1.7257    0.0000 C.ar    1  UNL1        0.0411
     24 C           8.6270   -0.3090    0.0000 C.ar    1  UNL1        0.2050
     25 C           8.6270    1.7604    0.0000 C.ar    1  UNL1        0.0798
     26 C           5.1350    2.7257    0.0000 C.ar    1  UNL1        0.0485
     27 C           4.2690    1.2257    0.0000 C.ar    1  UNL1        0.0066
     28 C           9.5331    0.2049    0.0000 C.ar    1  UNL1        0.0843
     29 C           9.5331    1.2465    0.0000 C.ar    1  UNL1        0.2020
     30 C           4.2690    3.2257    0.0000 C.ar    1  UNL1        0.2344
     31 C           3.4030    1.7257    0.0000 C.ar    1  UNL1        0.0455
     32 C           3.4030    2.7257    0.0000 C.ar    1  UNL1        0.2343
@<TRIPOS>BOND
     1     1    15    1
     2     2    18    1
     3     5    16    1
     4     6    19   ar
     5     6    22   ar
     6     7    20    2
     7     8    24    1
     8     9    29    1
     9    10    30    1
    10    11    32    1
    11    12     1    1
    12    12    13    1
    13    12    16    1
    14    13     3    1
    15    13    14    1
    16    14     4    1
    17    14    15    1
    18    15     2    1
    19    16    17    1
    20    18    19   ar
    21    18    20   ar
    22    19    23    1
    23    20    21   ar
    24    21    22   ar
    25    21    24   ar
    26    22    25   ar
    27    23    26   ar
    28    23    27   ar
    29    24    28   ar
    30    25    29   ar
    31    26    30   ar
    32    27    31   ar
    33    28    29   ar
    34    30    32   ar
    35    31    32   ar
