@<TRIPOS>MOLECULE
IMPHY017485
 44 43 0 0 0
SMALL
GASTEIGER

@<TRIPOS>ATOM
      1 O          11.5263   -0.2500    0.0000 O.3     1  UNL1       -0.4677
      2 O          10.6603    1.2500    0.0000 O.2     1  UNL1       -0.2506
      3 C           4.5981   -0.2500    0.0000 C.3     1  UNL1       -0.0439
      4 C           5.4641    0.2500    0.0000 C.3     1  UNL1       -0.0505
      5 C           6.3301   -0.2500    0.0000 C.3     1  UNL1       -0.0528
      6 C           7.1962    0.2500    0.0000 C.3     1  UNL1       -0.0530
      7 C           3.7320    0.2500    0.0000 C.3     1  UNL1       -0.0507
      8 C           8.0622   -0.2500    0.0000 C.3     1  UNL1       -0.0523
      9 C           8.9282    0.2500    0.0000 C.3     1  UNL1       -0.0404
     10 C           4.5981   -1.2500    0.0000 C.3     1  UNL1       -0.0624
     11 C           9.7942   -0.2500    0.0000 C.3     1  UNL1        0.0536
     12 C           2.8660   -0.2500    0.0000 C.3     1  UNL1       -0.0557
     13 C           9.7942   -1.2500    0.0000 C.3     1  UNL1       -0.0523
     14 C           2.0000    0.2500    0.0000 C.3     1  UNL1       -0.0653
     15 C          10.6603    0.2500    0.0000 C.2     1  UNL1        0.3097
     16 C          12.3923    0.2500    0.0000 C.3     1  UNL1        0.0817
     17 H           5.3342   -0.6750    0.0000 H       1  UNL1        0.0298
     18 H           5.8626    0.7249    0.0000 H       1  UNL1        0.0268
     19 H           5.0656    0.7249    0.0000 H       1  UNL1        0.0268
     20 H           5.9316   -0.7249    0.0000 H       1  UNL1        0.0265
     21 H           6.7287   -0.7249    0.0000 H       1  UNL1        0.0265
     22 H           7.5947    0.7249    0.0000 H       1  UNL1        0.0265
     23 H           6.7976    0.7249    0.0000 H       1  UNL1        0.0265
     24 H           4.1306    0.7249    0.0000 H       1  UNL1        0.0268
     25 H           3.3335    0.7249    0.0000 H       1  UNL1        0.0268
     26 H           7.6636   -0.7249    0.0000 H       1  UNL1        0.0265
     27 H           8.4607   -0.7249    0.0000 H       1  UNL1        0.0265
     28 H           9.3267    0.7249    0.0000 H       1  UNL1        0.0273
     29 H           8.5297    0.7249    0.0000 H       1  UNL1        0.0273
     30 H           3.9781   -1.2500    0.0000 H       1  UNL1        0.0232
     31 H           4.5981   -1.8700    0.0000 H       1  UNL1        0.0232
     32 H           5.2181   -1.2500    0.0000 H       1  UNL1        0.0232
     33 H           9.0581   -0.6750    0.0000 H       1  UNL1        0.0411
     34 H           2.4675   -0.7249    0.0000 H       1  UNL1        0.0263
     35 H           3.2646   -0.7249    0.0000 H       1  UNL1        0.0263
     36 H           9.1742   -1.2500    0.0000 H       1  UNL1        0.0238
     37 H           9.7942   -1.8700    0.0000 H       1  UNL1        0.0238
     38 H          10.4142   -1.2500    0.0000 H       1  UNL1        0.0238
     39 H           2.3100    0.7869    0.0000 H       1  UNL1        0.0230
     40 H           1.4631    0.5600    0.0000 H       1  UNL1        0.0230
     41 H           1.6900   -0.2869    0.0000 H       1  UNL1        0.0230
     42 H          12.7023   -0.2869    0.0000 H       1  UNL1        0.0661
     43 H          12.9292    0.5600    0.0000 H       1  UNL1        0.0661
     44 H          12.0823    0.7869    0.0000 H       1  UNL1        0.0661
@<TRIPOS>BOND
     1     1    15    1
     2     1    16    1
     3     2    15    2
     4     3     4    1
     5     3     7    1
     6     3    10    1
     7     3    17    1
     8     4     5    1
     9     4    18    1
    10     4    19    1
    11     5     6    1
    12     5    20    1
    13     5    21    1
    14     6     8    1
    15     6    22    1
    16     6    23    1
    17     7    12    1
    18     7    24    1
    19     7    25    1
    20     8     9    1
    21     8    26    1
    22     8    27    1
    23     9    11    1
    24     9    28    1
    25     9    29    1
    26    10    30    1
    27    10    31    1
    28    10    32    1
    29    11    13    1
    30    11    15    1
    31    11    33    1
    32    12    14    1
    33    12    34    1
    34    12    35    1
    35    13    36    1
    36    13    37    1
    37    13    38    1
    38    14    39    1
    39    14    40    1
    40    14    41    1
    41    16    42    1
    42    16    43    1
    43    16    44    1
