@<TRIPOS>MOLECULE
IMPHY000127
 41 43 0 0 0
SMALL
GASTEIGER

@<TRIPOS>ATOM
      1 O           6.8950   -0.9259    0.0000 O.3     1  UNL1       -0.4826
      2 O           3.4030   -0.8913    0.0000 O.3     1  UNL1       -0.4943
      3 O           5.1350    2.1087    0.0000 O.3     1  UNL1       -0.5055
      4 O           6.8834    2.1433    0.0000 O.2     1  UNL1       -0.2917
      5 O           2.5369    0.6087    0.0000 O.3     1  UNL1       -0.3902
      6 C           7.8010   -0.4121    0.0000 C.3     1  UNL1        0.1322
      7 C           7.8010    0.6296    0.0000 C.3     1  UNL1        0.0520
      8 C           6.0010    0.6087    0.0000 C.ar    1  UNL1        0.1013
      9 C           6.0010   -0.3913    0.0000 C.ar    1  UNL1        0.1418
     10 C           6.8950    1.1434    0.0000 C.2     1  UNL1        0.1740
     11 C           5.1350   -0.8913    0.0000 C.ar    1  UNL1        0.0341
     12 C           8.6651   -0.9154    0.0000 C.ar    1  UNL1       -0.0069
     13 C           5.1350    1.1087    0.0000 C.ar    1  UNL1        0.1397
     14 C           4.2690    0.6087    0.0000 C.ar    1  UNL1        0.0619
     15 C           4.2690   -0.3913    0.0000 C.ar    1  UNL1        0.1353
     16 C           5.1350   -1.8913    0.0000 C.3     1  UNL1       -0.0327
     17 C           3.4030    1.1087    0.0000 C.3     1  UNL1        0.0762
     18 C           8.6613   -1.9154    0.0000 C.ar    1  UNL1       -0.0551
     19 C           9.5331   -0.4188    0.0000 C.ar    1  UNL1       -0.0551
     20 C           9.5254   -2.4187    0.0000 C.ar    1  UNL1       -0.0614
     21 C          10.3972   -0.9221    0.0000 C.ar    1  UNL1       -0.0614
     22 C          10.3933   -1.9221    0.0000 C.ar    1  UNL1       -0.0617
     23 C           3.4030   -1.8913    0.0000 C.3     1  UNL1        0.0788
     24 H           7.7975   -1.0321    0.0000 H       1  UNL1        0.0789
     25 H           8.4119    0.5235    0.0000 H       1  UNL1        0.0385
     26 H           8.0101    1.2132    0.0000 H       1  UNL1        0.0385
     27 H           4.5150   -1.8913    0.0000 H       1  UNL1        0.0280
     28 H           5.1350   -2.5113    0.0000 H       1  UNL1        0.0280
     29 H           5.7550   -1.8913    0.0000 H       1  UNL1        0.0280
     30 H           3.8015    1.5837    0.0000 H       1  UNL1        0.0609
     31 H           3.0044    1.5837    0.0000 H       1  UNL1        0.0609
     32 H           8.1232   -2.2233    0.0000 H       1  UNL1        0.0621
     33 H           9.5355    0.2012    0.0000 H       1  UNL1        0.0621
     34 H           9.5230   -3.0387    0.0000 H       1  UNL1        0.0618
     35 H          10.9353   -0.6142    0.0000 H       1  UNL1        0.0618
     36 H           4.5981    2.4187    0.0000 H       1  UNL1        0.2922
     37 H          10.9291   -2.2342    0.0000 H       1  UNL1        0.0618
     38 H           2.7830   -1.8913    0.0000 H       1  UNL1        0.0660
     39 H           3.4030   -2.5113    0.0000 H       1  UNL1        0.0660
     40 H           4.0230   -1.8913    0.0000 H       1  UNL1        0.0660
     41 H           2.0000    0.9187    0.0000 H       1  UNL1        0.2099
@<TRIPOS>BOND
     1     1     6    1
     2     1     9    1
     3     2    15    1
     4     2    23    1
     5     3    13    1
     6     3    36    1
     7     4    10    2
     8     5    17    1
     9     5    41    1
    10     6     7    1
    11     6    12    1
    12     6    24    1
    13     7    10    1
    14     7    25    1
    15     7    26    1
    16     8     9   ar
    17     8    10    1
    18     8    13   ar
    19     9    11   ar
    20    11    15   ar
    21    11    16    1
    22    12    18   ar
    23    12    19   ar
    24    13    14   ar
    25    14    15   ar
    26    14    17    1
    27    16    27    1
    28    16    28    1
    29    16    29    1
    30    17    30    1
    31    17    31    1
    32    18    20   ar
    33    18    32    1
    34    19    21   ar
    35    19    33    1
    36    20    22   ar
    37    20    34    1
    38    21    22   ar
    39    21    35    1
    40    22    37    1
    41    23    38    1
    42    23    39    1
    43    23    40    1
