@<TRIPOS>MOLECULE
IMPHY000909
 59 61 0 0 0
SMALL
GASTEIGER

@<TRIPOS>ATOM
      1 O           6.0682    0.5000    0.0000 O.3     1  UNL1       -0.4838
      2 O           8.6663   -2.0000    0.0000 O.3     1  UNL1       -0.5031
      3 O          10.3984   -1.0000    0.0000 O.3     1  UNL1       -0.5031
      4 O           2.5381    0.4758    0.0000 O.3     1  UNL1       -0.5066
      5 C           6.9343    1.0000    0.0000 C.3     1  UNL1        0.1258
      6 C           6.9343    2.0000    0.0000 C.3     1  UNL1       -0.0074
      7 C           7.8003    0.5000    0.0000 C.ar    1  UNL1        0.0001
      8 C           6.0682    2.5000    0.0000 C.3     1  UNL1       -0.0206
      9 C           5.2022    2.0000    0.0000 C.ar    1  UNL1       -0.0053
     10 C           7.8003   -0.5000    0.0000 C.ar    1  UNL1        0.0081
     11 C           5.2022    1.0000    0.0000 C.ar    1  UNL1        0.1280
     12 C           8.6663    1.0000    0.0000 C.ar    1  UNL1       -0.0476
     13 C           9.5323    0.5000    0.0000 C.ar    1  UNL1        0.0018
     14 C           6.9343   -1.0000    0.0000 C.3     1  UNL1       -0.0053
     15 C           8.6663   -1.0000    0.0000 C.ar    1  UNL1        0.1624
     16 C           9.5323   -0.5000    0.0000 C.ar    1  UNL1        0.1621
     17 C           4.3083    2.5347    0.0000 C.ar    1  UNL1       -0.0517
     18 C           4.3083    0.4653    0.0000 C.ar    1  UNL1        0.0218
     19 C          10.3984    1.0000    0.0000 C.3     1  UNL1       -0.0057
     20 C           3.4022    2.0208    0.0000 C.ar    1  UNL1       -0.0197
     21 C           3.4022    0.9792    0.0000 C.ar    1  UNL1        0.1203
     22 C           6.9343   -2.0000    0.0000 C.2     1  UNL1       -0.0809
     23 C          10.3984    2.0000    0.0000 C.2     1  UNL1       -0.0809
     24 C           6.0682   -2.5000    0.0000 C.2     1  UNL1       -0.0793
     25 C          11.2644    2.5000    0.0000 C.2     1  UNL1       -0.0793
     26 C           6.0682   -3.5000    0.0000 C.3     1  UNL1       -0.0440
     27 C           5.2022   -2.0000    0.0000 C.3     1  UNL1       -0.0440
     28 C          11.2644    3.5000    0.0000 C.3     1  UNL1       -0.0440
     29 C          12.1304    2.0000    0.0000 C.3     1  UNL1       -0.0440
     30 H           6.9343    0.1500    0.0000 H       1  UNL1        0.0784
     31 H           7.5449    1.8923    0.0000 H       1  UNL1        0.0307
     32 H           7.1463    2.5826    0.0000 H       1  UNL1        0.0307
     33 H           6.4668    2.9750    0.0000 H       1  UNL1        0.0316
     34 H           5.6697    2.9750    0.0000 H       1  UNL1        0.0316
     35 H           8.6663    1.6200    0.0000 H       1  UNL1        0.0626
     36 H           6.7222   -0.4174    0.0000 H       1  UNL1        0.0357
     37 H           6.3237   -1.1077    0.0000 H       1  UNL1        0.0357
     38 H           4.3154    3.1546    0.0000 H       1  UNL1        0.0623
     39 H           4.3154   -0.1546    0.0000 H       1  UNL1        0.0691
     40 H          10.6104    0.4174    0.0000 H       1  UNL1        0.0357
     41 H          11.0090    1.1077    0.0000 H       1  UNL1        0.0357
     42 H           2.8665    2.3329    0.0000 H       1  UNL1        0.0654
     43 H           7.4712   -2.3100    0.0000 H       1  UNL1        0.0575
     44 H           9.8614    2.3100    0.0000 H       1  UNL1        0.0575
     45 H           9.2033   -2.3100    0.0000 H       1  UNL1        0.2923
     46 H          10.9353   -0.6900    0.0000 H       1  UNL1        0.2923
     47 H           5.4482   -3.5000    0.0000 H       1  UNL1        0.0274
     48 H           6.0682   -4.1200    0.0000 H       1  UNL1        0.0274
     49 H           6.6882   -3.5000    0.0000 H       1  UNL1        0.0274
     50 H           5.5122   -1.4631    0.0000 H       1  UNL1        0.0274
     51 H           4.6653   -1.6900    0.0000 H       1  UNL1        0.0274
     52 H           4.8922   -2.5369    0.0000 H       1  UNL1        0.0274
     53 H           2.0000    0.7838    0.0000 H       1  UNL1        0.2921
     54 H          11.8204    1.4631    0.0000 H       1  UNL1        0.0274
     55 H          12.6674    1.6900    0.0000 H       1  UNL1        0.0274
     56 H          12.4404    2.5369    0.0000 H       1  UNL1        0.0274
     57 H          11.8844    3.5000    0.0000 H       1  UNL1        0.0274
     58 H          11.2644    4.1200    0.0000 H       1  UNL1        0.0274
     59 H          10.6444    3.5000    0.0000 H       1  UNL1        0.0274
@<TRIPOS>BOND
     1     1     5    1
     2     1    11    1
     3     2    15    1
     4     2    45    1
     5     3    16    1
     6     3    46    1
     7     4    21    1
     8     4    53    1
     9     5     6    1
    10     5     7    1
    11     5    30    1
    12     6     8    1
    13     6    31    1
    14     6    32    1
    15     7    10   ar
    16     7    12   ar
    17     8     9    1
    18     8    33    1
    19     8    34    1
    20     9    11   ar
    21     9    17   ar
    22    10    14    1
    23    10    15   ar
    24    11    18   ar
    25    12    13   ar
    26    12    35    1
    27    13    16   ar
    28    13    19    1
    29    14    22    1
    30    14    36    1
    31    14    37    1
    32    15    16   ar
    33    17    20   ar
    34    17    38    1
    35    18    21   ar
    36    18    39    1
    37    19    23    1
    38    19    40    1
    39    19    41    1
    40    20    21   ar
    41    20    42    1
    42    22    24    2
    43    22    43    1
    44    23    25    2
    45    23    44    1
    46    24    26    1
    47    24    27    1
    48    25    28    1
    49    25    29    1
    50    26    47    1
    51    26    48    1
    52    26    49    1
    53    27    50    1
    54    27    51    1
    55    27    52    1
    56    28    57    1
    57    28    58    1
    58    28    59    1
    59    29    54    1
    60    29    55    1
    61    29    56    1
