@<TRIPOS>MOLECULE
IMPHY008145
 30 30 0 0 0
SMALL
GASTEIGER

@<TRIPOS>ATOM
      1 O           5.5202   -1.5094    0.0000 O.2     1  UNL1       -0.2924
      2 C           3.7601   -1.2306    0.0000 C.2     1  UNL1       -0.0060
      3 C           3.7601   -0.2306    0.0000 C.3     1  UNL1       -0.0244
      4 C           2.9511   -1.8184    0.0000 C.2     1  UNL1       -0.0657
      5 C           3.2601   -2.7694    0.0000 C.3     1  UNL1       -0.0243
      6 C           4.6261    0.2694    0.0000 C.3     1  UNL1       -0.0490
      7 C           4.2601   -2.7694    0.0000 C.3     1  UNL1        0.0138
      8 C           4.5691   -1.8184    0.0000 C.2     1  UNL1        0.1595
      9 C           4.6261    1.2694    0.0000 C.3     1  UNL1       -0.0530
     10 C           5.4921    1.7694    0.0000 C.3     1  UNL1       -0.0559
     11 C           2.0000   -1.5094    0.0000 C.3     1  UNL1       -0.0431
     12 C           5.4921    2.7694    0.0000 C.3     1  UNL1       -0.0653
     13 H           3.5480    0.3520    0.0000 H       1  UNL1        0.0314
     14 H           3.1495   -0.3382    0.0000 H       1  UNL1        0.0314
     15 H           2.6536   -2.8983    0.0000 H       1  UNL1        0.0314
     16 H           3.3249   -3.3860    0.0000 H       1  UNL1        0.0314
     17 H           4.8382   -0.3132    0.0000 H       1  UNL1        0.0268
     18 H           5.2367    0.3771    0.0000 H       1  UNL1        0.0268
     19 H           4.1953   -3.3860    0.0000 H       1  UNL1        0.0348
     20 H           4.8665   -2.8983    0.0000 H       1  UNL1        0.0348
     21 H           4.4140    1.8520    0.0000 H       1  UNL1        0.0265
     22 H           4.0155    1.1618    0.0000 H       1  UNL1        0.0265
     23 H           5.7042    1.1868    0.0000 H       1  UNL1        0.0263
     24 H           6.1027    1.8771    0.0000 H       1  UNL1        0.0263
     25 H           2.1916   -0.9197    0.0000 H       1  UNL1        0.0275
     26 H           1.4103   -1.3178    0.0000 H       1  UNL1        0.0275
     27 H           1.8084   -2.0990    0.0000 H       1  UNL1        0.0275
     28 H           6.1121    2.7694    0.0000 H       1  UNL1        0.0230
     29 H           5.4921    3.3894    0.0000 H       1  UNL1        0.0230
     30 H           4.8721    2.7694    0.0000 H       1  UNL1        0.0230
@<TRIPOS>BOND
     1     1     8    2
     2     2     3    1
     3     2     4    2
     4     2     8    1
     5     3     6    1
     6     3    13    1
     7     3    14    1
     8     4     5    1
     9     4    11    1
    10     5     7    1
    11     5    15    1
    12     5    16    1
    13     6     9    1
    14     6    17    1
    15     6    18    1
    16     7     8    1
    17     7    19    1
    18     7    20    1
    19     9    10    1
    20     9    21    1
    21     9    22    1
    22    10    12    1
    23    10    23    1
    24    10    24    1
    25    11    25    1
    26    11    26    1
    27    11    27    1
    28    12    28    1
    29    12    29    1
    30    12    30    1
