@<TRIPOS>MOLECULE
IMPHY008654
 65 65 0 0 0
SMALL
GASTEIGER

@<TRIPOS>ATOM
      1 O           8.5991    1.5000    0.0000 O.3     1  UNL1       -0.3914
      2 O           7.7331    3.0000    0.0000 O.2     1  UNL1       -0.2973
      3 O           4.2690    7.0000    0.0000 O.3     1  UNL1       -0.4915
      4 O           2.5369    6.0000    0.0000 O.3     1  UNL1       -0.5033
      5 C           9.4651   -2.0000    0.0000 C.3     1  UNL1       -0.0531
      6 C           8.5991   -1.5000    0.0000 C.3     1  UNL1       -0.0530
      7 C           9.4651   -3.0000    0.0000 C.3     1  UNL1       -0.0531
      8 C           8.5991   -0.5000    0.0000 C.3     1  UNL1       -0.0507
      9 C          10.3312   -3.5000    0.0000 C.3     1  UNL1       -0.0531
     10 C           7.7331    0.0000    0.0000 C.3     1  UNL1       -0.0265
     11 C          10.3312   -4.5000    0.0000 C.3     1  UNL1       -0.0531
     12 C           7.7331    1.0000    0.0000 C.3     1  UNL1        0.0619
     13 C          11.1972   -5.0000    0.0000 C.3     1  UNL1       -0.0531
     14 C           6.8671    1.5000    0.0000 C.3     1  UNL1        0.0319
     15 C          11.1972   -6.0000    0.0000 C.3     1  UNL1       -0.0533
     16 C          12.0632   -6.5000    0.0000 C.3     1  UNL1       -0.0559
     17 C           6.8671    2.5000    0.0000 C.2     1  UNL1        0.1361
     18 C           6.0010    3.0000    0.0000 C.3     1  UNL1        0.0099
     19 C           6.0010    4.0000    0.0000 C.3     1  UNL1       -0.0209
     20 C          12.0632   -7.5000    0.0000 C.3     1  UNL1       -0.0653
     21 C           5.1350    4.5000    0.0000 C.ar    1  UNL1       -0.0433
     22 C           5.1350    5.5000    0.0000 C.ar    1  UNL1       -0.0131
     23 C           4.2690    4.0000    0.0000 C.ar    1  UNL1       -0.0549
     24 C           4.2690    6.0000    0.0000 C.ar    1  UNL1        0.1615
     25 C           3.4030    4.5000    0.0000 C.ar    1  UNL1       -0.0163
     26 C           3.4030    5.5000    0.0000 C.ar    1  UNL1        0.1585
     27 C           5.1350    7.5000    0.0000 C.3     1  UNL1        0.0790
     28 H          10.0757   -2.1077    0.0000 H       1  UNL1        0.0265
     29 H           9.6772   -1.4174    0.0000 H       1  UNL1        0.0265
     30 H           7.9885   -1.3923    0.0000 H       1  UNL1        0.0265
     31 H           8.3871   -2.0826    0.0000 H       1  UNL1        0.0265
     32 H           8.8546   -2.8923    0.0000 H       1  UNL1        0.0265
     33 H           9.2531   -3.5826    0.0000 H       1  UNL1        0.0265
     34 H           9.2097   -0.6077    0.0000 H       1  UNL1        0.0266
     35 H           8.8112    0.0826    0.0000 H       1  UNL1        0.0266
     36 H          10.9417   -3.6077    0.0000 H       1  UNL1        0.0265
     37 H          10.5432   -2.9174    0.0000 H       1  UNL1        0.0265
     38 H           7.1225    0.1077    0.0000 H       1  UNL1        0.0290
     39 H           7.5210   -0.5826    0.0000 H       1  UNL1        0.0290
     40 H           9.7206   -4.3923    0.0000 H       1  UNL1        0.0265
     41 H          10.1191   -5.0826    0.0000 H       1  UNL1        0.0265
     42 H           7.7331    1.6200    0.0000 H       1  UNL1        0.0597
     43 H          11.8078   -5.1077    0.0000 H       1  UNL1        0.0265
     44 H          11.4092   -4.4174    0.0000 H       1  UNL1        0.0265
     45 H           6.2565    1.6077    0.0000 H       1  UNL1        0.0367
     46 H           6.6550    0.9174    0.0000 H       1  UNL1        0.0367
     47 H          10.5866   -5.8923    0.0000 H       1  UNL1        0.0265
     48 H          10.9851   -6.5826    0.0000 H       1  UNL1        0.0265
     49 H          12.6738   -6.6077    0.0000 H       1  UNL1        0.0263
     50 H          12.2753   -5.9174    0.0000 H       1  UNL1        0.0263
     51 H           5.3905    3.1077    0.0000 H       1  UNL1        0.0345
     52 H           5.7890    2.4174    0.0000 H       1  UNL1        0.0345
     53 H           9.1360    1.1900    0.0000 H       1  UNL1        0.2098
     54 H           6.6116    3.8923    0.0000 H       1  UNL1        0.0317
     55 H           6.2131    4.5826    0.0000 H       1  UNL1        0.0317
     56 H          11.4432   -7.5000    0.0000 H       1  UNL1        0.0230
     57 H          12.0632   -8.1200    0.0000 H       1  UNL1        0.0230
     58 H          12.6832   -7.5000    0.0000 H       1  UNL1        0.0230
     59 H           5.6720    5.8100    0.0000 H       1  UNL1        0.0658
     60 H           4.2690    3.3800    0.0000 H       1  UNL1        0.0621
     61 H           2.8660    4.1900    0.0000 H       1  UNL1        0.0655
     62 H           2.0000    5.6900    0.0000 H       1  UNL1        0.2923
     63 H           5.4450    6.9631    0.0000 H       1  UNL1        0.0660
     64 H           5.6720    7.8100    0.0000 H       1  UNL1        0.0660
     65 H           4.8250    8.0369    0.0000 H       1  UNL1        0.0660
@<TRIPOS>BOND
     1     1    12    1
     2     1    53    1
     3     2    17    2
     4     3    24    1
     5     3    27    1
     6     4    26    1
     7     4    62    1
     8     5     6    1
     9     5     7    1
    10     5    28    1
    11     5    29    1
    12     6     8    1
    13     6    30    1
    14     6    31    1
    15     7     9    1
    16     7    32    1
    17     7    33    1
    18     8    10    1
    19     8    34    1
    20     8    35    1
    21     9    11    1
    22     9    36    1
    23     9    37    1
    24    10    12    1
    25    10    38    1
    26    10    39    1
    27    11    13    1
    28    11    40    1
    29    11    41    1
    30    12    14    1
    31    12    42    1
    32    13    15    1
    33    13    43    1
    34    13    44    1
    35    14    17    1
    36    14    45    1
    37    14    46    1
    38    15    16    1
    39    15    47    1
    40    15    48    1
    41    16    20    1
    42    16    49    1
    43    16    50    1
    44    17    18    1
    45    18    19    1
    46    18    51    1
    47    18    52    1
    48    19    21    1
    49    19    54    1
    50    19    55    1
    51    20    56    1
    52    20    57    1
    53    20    58    1
    54    21    22   ar
    55    21    23   ar
    56    22    24   ar
    57    22    59    1
    58    23    25   ar
    59    23    60    1
    60    24    26   ar
    61    25    26   ar
    62    25    61    1
    63    27    63    1
    64    27    64    1
    65    27    65    1
