@<TRIPOS>MOLECULE
IMPHY001413
 106 107 0 0 0
SMALL
GASTEIGER

@<TRIPOS>ATOM
      1 O           6.9510   -1.9409    0.0000 O.3     1  UNL1       -0.3708
      2 O           7.4408    0.0894    0.0000 O.3     1  UNL1       -0.3892
      3 O           4.2603    1.7878    0.0000 O.3     1  UNL1       -0.3892
      4 O           6.3704    3.3840    0.0000 O.3     1  UNL1       -0.3892
      5 O           4.7323   -9.5927    0.0000 O.3     1  UNL1       -0.3915
      6 O           5.0458  -12.9586    0.0000 O.3     1  UNL1       -0.4542
      7 O           6.8058  -12.6798    0.0000 O.2     1  UNL1       -0.2453
      8 C           6.2819   -1.1978    0.0000 C.3     1  UNL1        0.0849
      9 C           6.4510   -2.8069    0.0000 C.3     1  UNL1        0.0592
     10 C           5.3683   -1.6045    0.0000 C.3     1  UNL1       -0.0218
     11 C           5.4728   -2.5990    0.0000 C.3     1  UNL1       -0.0242
     12 C           6.4898   -0.2196    0.0000 C.3     1  UNL1        0.0814
     13 C           6.8577   -3.7205    0.0000 C.3     1  UNL1       -0.0266
     14 C           5.7466    0.4495    0.0000 C.3     1  UNL1       -0.0220
     15 C           6.2700   -4.5295    0.0000 C.3     1  UNL1       -0.0507
     16 C           5.9545    1.4276    0.0000 C.3     1  UNL1       -0.0220
     17 C           5.2114    2.0968    0.0000 C.3     1  UNL1        0.0811
     18 C           6.6767   -5.4431    0.0000 C.3     1  UNL1       -0.0530
     19 C           5.4193    3.0749    0.0000 C.3     1  UNL1        0.0811
     20 C           6.0889   -6.2521    0.0000 C.3     1  UNL1       -0.0531
     21 C           4.6762    3.7441    0.0000 C.3     1  UNL1       -0.0244
     22 C           6.4956   -7.1656    0.0000 C.3     1  UNL1       -0.0530
     23 C           4.8841    4.7222    0.0000 C.3     1  UNL1       -0.0506
     24 C           5.9078   -7.9746    0.0000 C.3     1  UNL1       -0.0507
     25 C           4.1409    5.3913    0.0000 C.3     1  UNL1       -0.0530
     26 C           6.3146   -8.8882    0.0000 C.3     1  UNL1       -0.0265
     27 C           4.3488    6.3695    0.0000 C.3     1  UNL1       -0.0531
     28 C           3.6057    7.0386    0.0000 C.3     1  UNL1       -0.0531
     29 C           5.7268   -9.6972    0.0000 C.3     1  UNL1        0.0594
     30 C           3.8136    8.0168    0.0000 C.3     1  UNL1       -0.0531
     31 C           3.0705    8.6859    0.0000 C.3     1  UNL1       -0.0531
     32 C           6.1335  -10.6107    0.0000 C.3     1  UNL1        0.0050
     33 C           3.2784    9.6640    0.0000 C.3     1  UNL1       -0.0531
     34 C           2.5352   10.3332    0.0000 C.3     1  UNL1       -0.0531
     35 C           5.5458  -11.4198    0.0000 C.2     1  UNL1        0.0385
     36 C           2.7431   11.3113    0.0000 C.3     1  UNL1       -0.0533
     37 C           4.5458  -11.4198    0.0000 C.2     1  UNL1       -0.0342
     38 C           4.2367  -12.3708    0.0000 C.3     1  UNL1        0.1195
     39 C           5.8548  -12.3708    0.0000 C.2     1  UNL1        0.3356
     40 C           2.0000   11.9805    0.0000 C.3     1  UNL1       -0.0559
     41 C           3.2857  -12.6798    0.0000 C.3     1  UNL1       -0.0240
     42 C           2.2079   12.9586    0.0000 C.3     1  UNL1       -0.0653
     43 H           6.8807   -1.0373    0.0000 H       1  UNL1        0.0622
     44 H           7.0702   -2.8394    0.0000 H       1  UNL1        0.0596
     45 H           5.1767   -1.0149    0.0000 H       1  UNL1        0.0292
     46 H           4.7619   -1.7334    0.0000 H       1  UNL1        0.0292
     47 H           4.8528   -2.5990    0.0000 H       1  UNL1        0.0291
     48 H           5.4080   -3.2156    0.0000 H       1  UNL1        0.0291
     49 H           6.6187    0.3868    0.0000 H       1  UNL1        0.0619
     50 H           7.2884   -4.1665    0.0000 H       1  UNL1        0.0290
     51 H           7.3717   -3.3738    0.0000 H       1  UNL1        0.0290
     52 H           5.1718    0.6818    0.0000 H       1  UNL1        0.0292
     53 H           5.4181   -0.0763    0.0000 H       1  UNL1        0.0292
     54 H           5.8393   -4.0835    0.0000 H       1  UNL1        0.0266
     55 H           5.7559   -4.8762    0.0000 H       1  UNL1        0.0266
     56 H           6.5294    1.1954    0.0000 H       1  UNL1        0.0292
     57 H           6.2831    1.9534    0.0000 H       1  UNL1        0.0292
     58 H           4.7506    2.5116    0.0000 H       1  UNL1        0.0619
     59 H           7.1074   -5.8890    0.0000 H       1  UNL1        0.0265
     60 H           7.1907   -5.0964    0.0000 H       1  UNL1        0.0265
     61 H           5.8801    2.6601    0.0000 H       1  UNL1        0.0619
     62 H           5.6582   -5.8061    0.0000 H       1  UNL1        0.0265
     63 H           5.5749   -6.5988    0.0000 H       1  UNL1        0.0265
     64 H           7.5697    0.6958    0.0000 H       1  UNL1        0.2099
     65 H           4.1013    3.9763    0.0000 H       1  UNL1        0.0291
     66 H           4.3476    3.2183    0.0000 H       1  UNL1        0.0291
     67 H           6.9263   -7.6116    0.0000 H       1  UNL1        0.0265
     68 H           7.0096   -6.8189    0.0000 H       1  UNL1        0.0265
     69 H           5.4589    4.4900    0.0000 H       1  UNL1        0.0266
     70 H           5.2126    5.2480    0.0000 H       1  UNL1        0.0266
     71 H           5.4772   -7.5286    0.0000 H       1  UNL1        0.0266
     72 H           5.3938   -8.3213    0.0000 H       1  UNL1        0.0266
     73 H           3.5661    5.6236    0.0000 H       1  UNL1        0.0265
     74 H           3.8124    4.8656    0.0000 H       1  UNL1        0.0265
     75 H           3.7996    2.2026    0.0000 H       1  UNL1        0.2099
     76 H           6.7453   -9.3342    0.0000 H       1  UNL1        0.0290
     77 H           6.8286   -8.5415    0.0000 H       1  UNL1        0.0290
     78 H           4.9237    6.1372    0.0000 H       1  UNL1        0.0265
     79 H           4.6774    6.8953    0.0000 H       1  UNL1        0.0265
     80 H           6.4993    3.9904    0.0000 H       1  UNL1        0.2099
     81 H           3.0308    7.2709    0.0000 H       1  UNL1        0.0265
     82 H           3.2772    6.5128    0.0000 H       1  UNL1        0.0265
     83 H           5.4746   -9.1308    0.0000 H       1  UNL1        0.0596
     84 H           4.3885    7.7845    0.0000 H       1  UNL1        0.0265
     85 H           4.1422    8.5426    0.0000 H       1  UNL1        0.0265
     86 H           2.4956    8.9182    0.0000 H       1  UNL1        0.0265
     87 H           2.7419    8.1601    0.0000 H       1  UNL1        0.0265
     88 H           6.5642  -11.0567    0.0000 H       1  UNL1        0.0340
     89 H           6.6475  -10.2640    0.0000 H       1  UNL1        0.0340
     90 H           3.8532    9.4318    0.0000 H       1  UNL1        0.0265
     91 H           3.6069   10.1898    0.0000 H       1  UNL1        0.0265
     92 H           1.9604   10.5654    0.0000 H       1  UNL1        0.0265
     93 H           2.2067    9.8074    0.0000 H       1  UNL1        0.0265
     94 H           4.4801   -9.0263    0.0000 H       1  UNL1        0.2098
     95 H           3.3180   11.0791    0.0000 H       1  UNL1        0.0265
     96 H           3.0717   11.8371    0.0000 H       1  UNL1        0.0265
     97 H           4.1813  -10.9182    0.0000 H       1  UNL1        0.0613
     98 H           4.1398  -12.9832    0.0000 H       1  UNL1        0.0777
     99 H           1.4252   12.2127    0.0000 H       1  UNL1        0.0263
    100 H           1.6714   11.4547    0.0000 H       1  UNL1        0.0263
    101 H           3.0941  -12.0902    0.0000 H       1  UNL1        0.0268
    102 H           2.6960  -12.8714    0.0000 H       1  UNL1        0.0268
    103 H           3.4773  -13.2695    0.0000 H       1  UNL1        0.0268
    104 H           2.8144   12.8297    0.0000 H       1  UNL1        0.0230
    105 H           2.3368   13.5651    0.0000 H       1  UNL1        0.0230
    106 H           1.6015   13.0875    0.0000 H       1  UNL1        0.0230
@<TRIPOS>BOND
     1     1     8    1
     2     1     9    1
     3     2    12    1
     4     2    64    1
     5     3    17    1
     6     3    75    1
     7     4    19    1
     8     4    80    1
     9    29     5    1
    10     5    94    1
    11     6    38    1
    12     6    39    1
    13     7    39    2
    14     8    10    1
    15     8    12    1
    16     8    43    1
    17     9    11    1
    18     9    13    1
    19     9    44    1
    20    10    11    1
    21    10    45    1
    22    10    46    1
    23    11    47    1
    24    11    48    1
    25    12    14    1
    26    12    49    1
    27    13    15    1
    28    13    50    1
    29    13    51    1
    30    14    16    1
    31    14    52    1
    32    14    53    1
    33    15    18    1
    34    15    54    1
    35    15    55    1
    36    16    17    1
    37    16    56    1
    38    16    57    1
    39    17    19    1
    40    17    58    1
    41    18    20    1
    42    18    59    1
    43    18    60    1
    44    19    21    1
    45    19    61    1
    46    20    22    1
    47    20    62    1
    48    20    63    1
    49    21    23    1
    50    21    65    1
    51    21    66    1
    52    22    24    1
    53    22    67    1
    54    22    68    1
    55    23    25    1
    56    23    69    1
    57    23    70    1
    58    24    26    1
    59    24    71    1
    60    24    72    1
    61    25    27    1
    62    25    73    1
    63    25    74    1
    64    26    29    1
    65    26    76    1
    66    26    77    1
    67    27    28    1
    68    27    78    1
    69    27    79    1
    70    28    30    1
    71    28    81    1
    72    28    82    1
    73    29    32    1
    74    29    83    1
    75    30    31    1
    76    30    84    1
    77    30    85    1
    78    31    33    1
    79    31    86    1
    80    31    87    1
    81    32    35    1
    82    32    88    1
    83    32    89    1
    84    33    34    1
    85    33    90    1
    86    33    91    1
    87    34    36    1
    88    34    92    1
    89    34    93    1
    90    35    37    2
    91    35    39    1
    92    36    40    1
    93    36    95    1
    94    36    96    1
    95    37    38    1
    96    37    97    1
    97    38    41    1
    98    38    98    1
    99    40    42    1
   100    40    99    1
   101    40   100    1
   102    41   101    1
   103    41   102    1
   104    41   103    1
   105    42   104    1
   106    42   105    1
   107    42   106    1
