@<TRIPOS>MOLECULE
IMPHY014717
 34 34 0 0 0
SMALL
GASTEIGER

@<TRIPOS>ATOM
      1 O           3.7601    0.6796    0.0000 O.3     1  UNL1       -0.4610
      2 O           2.0000    0.9584    0.0000 O.2     1  UNL1       -0.2508
      3 C           4.5691    1.2674    0.0000 C.3     1  UNL1        0.1070
      4 C           4.2601    2.2185    0.0000 C.3     1  UNL1       -0.0053
      5 C           5.5202    0.9584    0.0000 C.3     1  UNL1        0.0026
      6 C           3.2601    2.2185    0.0000 C.3     1  UNL1        0.0483
      7 C           2.9511    1.2674    0.0000 C.2     1  UNL1        0.3075
      8 C           8.3733    0.0313    0.0000 C.3     1  UNL1       -0.0496
      9 C           7.4223    0.3404    0.0000 C.3     1  UNL1       -0.0348
     10 C           6.2633    1.6275    0.0000 C.2     1  UNL1       -0.0845
     11 C           8.5812   -0.9468    0.0000 C.3     1  UNL1       -0.0530
     12 C           7.2144    1.3185    0.0000 C.2     1  UNL1       -0.0878
     13 C           9.5323   -1.2558    0.0000 C.3     1  UNL1       -0.0559
     14 C           9.7402   -2.2340    0.0000 C.3     1  UNL1       -0.0653
     15 H           4.6661    0.6550    0.0000 H       1  UNL1        0.0737
     16 H           4.8665    2.3474    0.0000 H       1  UNL1        0.0306
     17 H           4.1953    2.8351    0.0000 H       1  UNL1        0.0306
     18 H           5.2291    0.4110    0.0000 H       1  UNL1        0.0343
     19 H           6.0087    0.5767    0.0000 H       1  UNL1        0.0343
     20 H           3.3249    2.8351    0.0000 H       1  UNL1        0.0379
     21 H           2.6536    2.3474    0.0000 H       1  UNL1        0.0379
     22 H           8.9929    0.0530    0.0000 H       1  UNL1        0.0268
     23 H           8.4596    0.6453    0.0000 H       1  UNL1        0.0268
     24 H           6.8026    0.3187    0.0000 H       1  UNL1        0.0307
     25 H           7.3360   -0.2736    0.0000 H       1  UNL1        0.0307
     26 H           6.1344    2.2340    0.0000 H       1  UNL1        0.0570
     27 H           7.9616   -0.9684    0.0000 H       1  UNL1        0.0265
     28 H           8.4949   -1.5608    0.0000 H       1  UNL1        0.0265
     29 H           7.6751    1.7334    0.0000 H       1  UNL1        0.0569
     30 H          10.1519   -1.2342    0.0000 H       1  UNL1        0.0263
     31 H           9.6186   -0.6419    0.0000 H       1  UNL1        0.0263
     32 H           9.1337   -2.3629    0.0000 H       1  UNL1        0.0230
     33 H           9.8691   -2.8404    0.0000 H       1  UNL1        0.0230
     34 H          10.3466   -2.1051    0.0000 H       1  UNL1        0.0230
@<TRIPOS>BOND
     1     1     3    1
     2     1     7    1
     3     2     7    2
     4     3     4    1
     5     3     5    1
     6     3    15    1
     7     4     6    1
     8     4    16    1
     9     4    17    1
    10     5    10    1
    11     5    18    1
    12     5    19    1
    13     6     7    1
    14     6    20    1
    15     6    21    1
    16     8     9    1
    17     8    11    1
    18     8    22    1
    19     8    23    1
    20     9    12    1
    21     9    24    1
    22     9    25    1
    23    10    12    2
    24    10    26    1
    25    11    13    1
    26    11    27    1
    27    11    28    1
    28    12    29    1
    29    13    14    1
    30    13    30    1
    31    13    31    1
    32    14    32    1
    33    14    33    1
    34    14    34    1
