@<TRIPOS>MOLECULE
IMPHY008467
 120 124 0 0 0
SMALL
GASTEIGER

@<TRIPOS>ATOM
      1 O           5.1350   -3.5000    0.0000 O.3     1  UNL1       -0.3404
      2 O          16.5632   -1.6340    0.0000 O.3     1  UNL1       -0.3404
      3 O           6.8671   -3.5000    0.0000 O.3     1  UNL1       -0.3061
      4 O          15.0632   -0.7679    0.0000 O.3     1  UNL1       -0.3061
      5 O           5.1350   -6.5000    0.0000 O.3     1  UNL1       -0.3864
      6 O           3.4030   -5.5000    0.0000 O.3     1  UNL1       -0.3865
      7 O          18.0632    0.9641    0.0000 O.3     1  UNL1       -0.3864
      8 O           6.8671   -5.5000    0.0000 O.3     1  UNL1       -0.3841
      9 O          19.0632   -0.7679    0.0000 O.3     1  UNL1       -0.3865
     10 O          16.0632    0.9641    0.0000 O.3     1  UNL1       -0.3841
     11 O           6.0010   -2.0000    0.0000 O.2     1  UNL1       -0.4666
     12 O          15.0632   -2.5000    0.0000 O.2     1  UNL1       -0.4666
     13 O           2.5369   -4.0000    0.0000 O.3     1  UNL1       -0.3924
     14 O          19.0632   -2.5000    0.0000 O.3     1  UNL1       -0.3924
     15 O          10.3312   -2.5000    0.0000 O.3     1  UNL1       -0.4604
     16 O           7.7331    1.0000    0.0000 O.3     1  UNL1       -0.4643
     17 O           5.1350   -0.5000    0.0000 O.3     1  UNL1       -0.4646
     18 O          13.5632   -5.0981    0.0000 O.3     1  UNL1       -0.4646
     19 O          11.1972   -1.0000    0.0000 O.2     1  UNL1       -0.2508
     20 O          13.0632    0.9641    0.0000 O.3     1  UNL1       -0.3910
     21 O           6.0010    1.0000    0.0000 O.2     1  UNL1       -0.2452
     22 O           9.4651    1.0000    0.0000 O.2     1  UNL1       -0.2508
     23 O          12.0632   -4.2320    0.0000 O.2     1  UNL1       -0.2452
     24 O           6.8671    6.5000    0.0000 O.3     1  UNL1       -0.5068
     25 C           5.1350   -5.5000    0.0000 C.3     1  UNL1        0.1141
     26 C           4.2690   -5.0000    0.0000 C.3     1  UNL1        0.1119
     27 C          17.5632    0.0981    0.0000 C.3     1  UNL1        0.1141
     28 C           6.0010   -5.0000    0.0000 C.3     1  UNL1        0.1343
     29 C          18.0632   -0.7679    0.0000 C.3     1  UNL1        0.1119
     30 C          16.5632    0.0981    0.0000 C.3     1  UNL1        0.1343
     31 C           4.2690   -4.0000    0.0000 C.3     1  UNL1        0.1130
     32 C          17.5632   -1.6340    0.0000 C.3     1  UNL1        0.1130
     33 C           6.0010   -4.0000    0.0000 C.3     1  UNL1        0.1921
     34 C          16.0632   -0.7679    0.0000 C.3     1  UNL1        0.1921
     35 C           3.4030   -3.5000    0.0000 C.3     1  UNL1        0.0730
     36 C          18.0632   -2.5000    0.0000 C.3     1  UNL1        0.0730
     37 C           6.8671   -2.5000    0.0000 C.3     1  UNL1        0.2267
     38 C          14.5632   -1.6340    0.0000 C.3     1  UNL1        0.2266
     39 C           7.7331   -2.0000    0.0000 C.2     1  UNL1        0.0053
     40 C           7.7331   -1.0000    0.0000 C.3     1  UNL1        0.0308
     41 C          13.0632   -2.5000    0.0000 C.3     1  UNL1        0.0308
     42 C          13.5632   -1.6340    0.0000 C.2     1  UNL1        0.0043
     43 C          12.0632   -2.5000    0.0000 C.3     1  UNL1        0.0559
     44 C           6.8671   -0.5000    0.0000 C.2     1  UNL1        0.0785
     45 C          13.5632   -3.3660    0.0000 C.2     1  UNL1        0.0785
     46 C           8.5991   -0.5000    0.0000 C.3     1  UNL1        0.0559
     47 C           8.5991   -2.5000    0.0000 C.2     1  UNL1       -0.0413
     48 C           6.0010   -1.0000    0.0000 C.2     1  UNL1        0.0988
     49 C          13.0632   -0.7679    0.0000 C.2     1  UNL1       -0.0533
     50 C          14.5632   -3.3660    0.0000 C.2     1  UNL1        0.0988
     51 C           9.4651   -2.0000    0.0000 C.3     1  UNL1        0.1112
     52 C          11.1972   -2.0000    0.0000 C.2     1  UNL1        0.3083
     53 C           6.0010   -0.0000    0.0000 C.2     1  UNL1        0.3384
     54 C           8.5991    0.5000    0.0000 C.2     1  UNL1        0.3080
     55 C          13.0632   -4.2320    0.0000 C.2     1  UNL1        0.3384
     56 C          13.5632    0.0981    0.0000 C.3     1  UNL1        0.0628
     57 C           7.7331    2.0000    0.0000 C.3     1  UNL1        0.0964
     58 C           6.8671    2.5000    0.0000 C.3     1  UNL1        0.0067
     59 C           4.2690   -0.0000    0.0000 C.3     1  UNL1        0.0820
     60 C          13.0632   -5.9641    0.0000 C.3     1  UNL1        0.0820
     61 C           6.8671    3.5000    0.0000 C.ar    1  UNL1       -0.0439
     62 C           6.0010    4.0000    0.0000 C.ar    1  UNL1       -0.0550
     63 C           7.7331    4.0000    0.0000 C.ar    1  UNL1       -0.0550
     64 C           6.0010    5.0000    0.0000 C.ar    1  UNL1       -0.0199
     65 C           7.7331    5.0000    0.0000 C.ar    1  UNL1       -0.0199
     66 C           6.8671    5.5000    0.0000 C.ar    1  UNL1        0.1169
     67 H           5.6720   -5.8100    0.0000 H       1  UNL1        0.0648
     68 H           4.2690   -5.6200    0.0000 H       1  UNL1        0.0647
     69 H          18.1832    0.0981    0.0000 H       1  UNL1        0.0648
     70 H           6.5380   -4.6900    0.0000 H       1  UNL1        0.0671
     71 H          18.3732   -1.3049    0.0000 H       1  UNL1        0.0647
     72 H          16.8732    0.6350    0.0000 H       1  UNL1        0.0671
     73 H           4.2690   -3.3800    0.0000 H       1  UNL1        0.0647
     74 H          17.2532   -2.1709    0.0000 H       1  UNL1        0.0647
     75 H           6.0010   -3.3800    0.0000 H       1  UNL1        0.0939
     76 H          15.7532   -1.3049    0.0000 H       1  UNL1        0.0939
     77 H           3.8015   -3.0250    0.0000 H       1  UNL1        0.0584
     78 H           3.0044   -3.0250    0.0000 H       1  UNL1        0.0584
     79 H          17.4806   -2.7120    0.0000 H       1  UNL1        0.0584
     80 H          18.1709   -3.1106    0.0000 H       1  UNL1        0.0584
     81 H           7.4040   -2.8100    0.0000 H       1  UNL1        0.1109
     82 H          14.2532   -1.0970    0.0000 H       1  UNL1        0.1109
     83 H           8.2700   -1.3100    0.0000 H       1  UNL1        0.0404
     84 H          12.7532   -3.0369    0.0000 H       1  UNL1        0.0404
     85 H           4.5981   -6.8100    0.0000 H       1  UNL1        0.2100
     86 H           3.4030   -6.1200    0.0000 H       1  UNL1        0.2100
     87 H          18.6832    0.9641    0.0000 H       1  UNL1        0.2100
     88 H           6.8671   -6.1200    0.0000 H       1  UNL1        0.2101
     89 H          19.3732   -0.2310    0.0000 H       1  UNL1        0.2100
     90 H          16.3732    1.5010    0.0000 H       1  UNL1        0.2101
     91 H          11.5883   -2.8985    0.0000 H       1  UNL1        0.0387
     92 H          12.2237   -1.9011    0.0000 H       1  UNL1        0.0387
     93 H           8.8112   -1.0826    0.0000 H       1  UNL1        0.0387
     94 H           9.2097   -0.3923    0.0000 H       1  UNL1        0.0387
     95 H           8.5991   -3.1200    0.0000 H       1  UNL1        0.0607
     96 H           5.4641   -0.6900    0.0000 H       1  UNL1        0.1030
     97 H          12.4432   -0.7679    0.0000 H       1  UNL1        0.0596
     98 H          14.8732   -3.9030    0.0000 H       1  UNL1        0.1030
     99 H           2.0000   -3.6900    0.0000 H       1  UNL1        0.2095
    100 H          19.3732   -3.0369    0.0000 H       1  UNL1        0.2095
    101 H           9.8637   -1.5250    0.0000 H       1  UNL1        0.0743
    102 H           9.0666   -1.5250    0.0000 H       1  UNL1        0.0743
    103 H          14.0382   -0.3005    0.0000 H       1  UNL1        0.0601
    104 H          14.0382    0.4966    0.0000 H       1  UNL1        0.0601
    105 H           8.3437    1.8923    0.0000 H       1  UNL1        0.0701
    106 H           7.9451    2.5826    0.0000 H       1  UNL1        0.0701
    107 H          13.3732    1.5010    0.0000 H       1  UNL1        0.2098
    108 H           6.2565    2.6077    0.0000 H       1  UNL1        0.0346
    109 H           6.6550    1.9174    0.0000 H       1  UNL1        0.0346
    110 H           4.5790    0.5369    0.0000 H       1  UNL1        0.0661
    111 H           3.7320    0.3100    0.0000 H       1  UNL1        0.0661
    112 H           3.9590   -0.5369    0.0000 H       1  UNL1        0.0661
    113 H          12.5263   -5.6541    0.0000 H       1  UNL1        0.0661
    114 H          12.7532   -6.5010    0.0000 H       1  UNL1        0.0661
    115 H          13.6002   -6.2741    0.0000 H       1  UNL1        0.0661
    116 H           5.4641    3.6900    0.0000 H       1  UNL1        0.0621
    117 H           8.2700    3.6900    0.0000 H       1  UNL1        0.0621
    118 H           5.4641    5.3100    0.0000 H       1  UNL1        0.0654
    119 H           8.2700    5.3100    0.0000 H       1  UNL1        0.0654
    120 H           6.3301    6.8100    0.0000 H       1  UNL1        0.2921
@<TRIPOS>BOND
     1     1    31    1
     2     1    33    1
     3     2    32    1
     4     2    34    1
     5    33     3    1
     6    37     3    1
     7    34     4    1
     8    38     4    1
     9    25     5    1
    10     5    85    1
    11    26     6    1
    12     6    86    1
    13    27     7    1
    14     7    87    1
    15    28     8    1
    16     8    88    1
    17    29     9    1
    18     9    89    1
    19    30    10    1
    20    10    90    1
    21    11    37    1
    22    11    48    1
    23    12    38    1
    24    12    50    1
    25    13    35    1
    26    13    99    1
    27    14    36    1
    28    14   100    1
    29    15    51    1
    30    15    52    1
    31    16    54    1
    32    16    57    1
    33    17    53    1
    34    17    59    1
    35    18    55    1
    36    18    60    1
    37    19    52    2
    38    20    56    1
    39    20   107    1
    40    21    53    2
    41    22    54    2
    42    23    55    2
    43    24    66    1
    44    24   120    1
    45    25    26    1
    46    25    28    1
    47    25    67    1
    48    26    31    1
    49    26    68    1
    50    27    29    1
    51    27    30    1
    52    27    69    1
    53    28    33    1
    54    28    70    1
    55    29    32    1
    56    29    71    1
    57    30    34    1
    58    30    72    1
    59    31    35    1
    60    31    73    1
    61    32    36    1
    62    32    74    1
    63    33    75    1
    64    34    76    1
    65    35    77    1
    66    35    78    1
    67    36    79    1
    68    36    80    1
    69    37    39    1
    70    37    81    1
    71    38    42    1
    72    38    82    1
    73    39    40    1
    74    39    47    2
    75    40    44    1
    76    40    46    1
    77    40    83    1
    78    41    42    1
    79    41    43    1
    80    41    45    1
    81    41    84    1
    82    42    49    2
    83    43    52    1
    84    43    91    1
    85    43    92    1
    86    44    48    2
    87    44    53    1
    88    45    50    2
    89    45    55    1
    90    46    54    1
    91    46    93    1
    92    46    94    1
    93    47    51    1
    94    47    95    1
    95    48    96    1
    96    49    56    1
    97    49    97    1
    98    50    98    1
    99    51   101    1
   100    51   102    1
   101    56   103    1
   102    56   104    1
   103    57    58    1
   104    57   105    1
   105    57   106    1
   106    58    61    1
   107    58   108    1
   108    58   109    1
   109    59   110    1
   110    59   111    1
   111    59   112    1
   112    60   113    1
   113    60   114    1
   114    60   115    1
   115    61    62   ar
   116    61    63   ar
   117    62    64   ar
   118    62   116    1
   119    63    65   ar
   120    63   117    1
   121    64    66   ar
   122    64   118    1
   123    65    66   ar
   124    65   119    1
