@<TRIPOS>MOLECULE
IMPHY002327
 26 28 0 0 0
SMALL
GASTEIGER

@<TRIPOS>ATOM
      1 C           5.1844    1.5022    0.0000 C.ar    1  UNL1        0.1125
      2 C           4.3217    1.0069    0.0000 C.ar    1  UNL1        0.2047
      3 C           5.1844    2.5037    0.0000 C.ar    1  UNL1        0.1545
      4 C           6.0552    0.9988    0.0000 C.ar    1  UNL1        0.2048
      5 C           3.4535    1.5077    0.0000 C.ar    1  UNL1        0.0769
      6 O           4.3189    0.0054    0.0000 O.2     1  UNL1       -0.2862
      7 O           4.3162    3.0072    0.0000 O.2     1  UNL1       -0.4530
      8 C           6.0525    3.0072    0.0000 C.ar    1  UNL1        0.0754
      9 C           6.9261    1.4968    0.0000 C.ar    1  UNL1        0.0799
     10 O           6.0525    0.0000    0.0000 O.3     1  UNL1       -0.2862
     11 C           3.4535    2.5065    0.0000 C.ar    1  UNL1        0.1516
     12 C           2.5935    1.0069    0.0000 C.ar    1  UNL1        0.0463
     13 C           6.9261    2.5037    0.0000 C.ar    1  UNL1        0.1547
     14 C           2.5908    2.9990    0.0000 C.ar    1  UNL1        0.0783
     15 C           1.7308    1.5050    0.0000 C.ar    1  UNL1        0.1734
     16 O           7.7915    3.0018    0.0000 O.3     1  UNL1       -0.4239
     17 C           1.7308    2.5010    0.0000 C.ar    1  UNL1        0.1851
     18 O           0.8654    1.0042    0.0000 O.3     1  UNL1       -0.4683
     19 C           8.6569    2.5037    0.0000 C.2     1  UNL1        0.3220
     20 O           0.8654    3.0018    0.0000 O.3     1  UNL1       -0.4209
     21 C           0.8654    0.0027    0.0000 C.3     1  UNL1        0.2526
     22 O           9.5251    3.0018    0.0000 O.2     1  UNL1       -0.2497
     23 C           8.6569    1.5022    0.0000 C.3     1  UNL1        0.1216
     24 C           0.8654    4.0005    0.0000 C.2     1  UNL1        0.3221
     25 O           0.0000    4.5013    0.0000 O.2     1  UNL1       -0.2497
     26 C           1.7308    4.5013    0.0000 C.3     1  UNL1        0.1216
@<TRIPOS>BOND
     1     1     2   ar
     2     1     3   ar
     3     1     4   ar
     4     2     5   ar
     5     2     6    2
     6     3     7   ar
     7     3     8   ar
     8     4     9   ar
     9     4    10    1
    10     5    11   ar
    11     5    12   ar
    12     7    11   ar
    13     8    13   ar
    14     9    13   ar
    15    11    14   ar
    16    12    15   ar
    17    13    16    1
    18    14    17   ar
    19    15    17   ar
    20    15    18    1
    21    16    19    1
    22    17    20    1
    23    18    21    1
    24    19    22    2
    25    19    23    1
    26    20    24    1
    27    24    25    2
    28    24    26    1
