@<TRIPOS>MOLECULE
IMPHY014066
 46 51 0 0 0
SMALL
GASTEIGER

@<TRIPOS>ATOM
      1 O           6.0110   -0.4988    0.0000 O.3     1  UNL1       -0.3703
      2 O           4.1676   -2.9483    0.0000 O.co2   1  UNL1       -0.7753
      3 N           4.5103   -2.0089    0.0000 N.3     1  UNL1        0.2181
      4 N           5.0981    2.1636    0.0000 N.2     1  UNL1       -0.2527
      5 C           3.7320    0.1247    0.0000 C.3     1  UNL1        0.0468
      6 C           4.5981    0.6247    0.0000 C.3     1  UNL1        0.0576
      7 C           3.7320   -0.8753    0.0000 C.3     1  UNL1       -0.0132
      8 C           5.4641   -0.8753    0.0000 C.3     1  UNL1       -0.0154
      9 C           4.5981   -1.3752    0.0000 C.3     1  UNL1        0.0293
     10 C           5.4641    0.1247    0.0000 C.3     1  UNL1        0.0065
     11 C           3.2272   -1.2681    0.0000 C.3     1  UNL1       -0.0219
     12 C           4.6807   -0.5611    0.0000 C.3     1  UNL1       -0.0169
     13 C           5.4071    1.2125    0.0000 C.2     1  UNL1        0.0598
     14 C           5.3061    0.2183    0.0000 C.3     1  UNL1        0.0978
     15 C           5.6027   -1.4177    0.0000 C.3     1  UNL1        0.0567
     16 C           3.7891    1.2125    0.0000 C.ar    1  UNL1       -0.0091
     17 C           2.8660   -0.3753    0.0000 C.2     1  UNL1       -0.0785
     18 C           5.1525   -2.7754    0.0000 C.3     1  UNL1       -0.0436
     19 C           4.0981    2.1636    0.0000 C.ar    1  UNL1        0.0680
     20 C           2.7736    0.9803    0.0000 C.ar    1  UNL1       -0.0556
     21 C           2.0000    0.1247    0.0000 C.2     1  UNL1       -0.1019
     22 C           3.4131    2.9483    0.0000 C.ar    1  UNL1       -0.0360
     23 C           2.0707    1.7490    0.0000 C.ar    1  UNL1       -0.0613
     24 C           2.3926    2.7396    0.0000 C.ar    1  UNL1       -0.0597
     25 H           3.1951   -1.1852    0.0000 H       1  UNL1        0.0318
     26 H           6.0466   -1.0877    0.0000 H       1  UNL1        0.0854
     27 H           4.4250   -1.9706    0.0000 H       1  UNL1        0.0381
     28 H           6.0747    0.0171    0.0000 H       1  UNL1        0.0332
     29 H           5.6762    0.7074    0.0000 H       1  UNL1        0.0332
     30 H           2.6577   -1.0230    0.0000 H       1  UNL1        0.0822
     31 H           2.9492   -1.8223    0.0000 H       1  UNL1        0.0822
     32 H           4.6732   -1.1811    0.0000 H       1  UNL1        0.0297
     33 H           4.3270   -0.0520    0.0000 H       1  UNL1        0.0297
     34 H           5.8911    0.4238    0.0000 H       1  UNL1        0.0658
     35 H           5.4993   -2.0290    0.0000 H       1  UNL1        0.0565
     36 H           6.1963   -1.5966    0.0000 H       1  UNL1        0.0565
     37 H           2.8660   -0.9953    0.0000 H       1  UNL1        0.0574
     38 H           4.6773   -3.1736    0.0000 H       1  UNL1        0.0777
     39 H           5.5507   -3.2506    0.0000 H       1  UNL1        0.0777
     40 H           5.6278   -2.3771    0.0000 H       1  UNL1        0.0777
     41 H           2.5889    0.3885    0.0000 H       1  UNL1        0.0621
     42 H           2.0000    0.7447    0.0000 H       1  UNL1        0.0532
     43 H           1.4631   -0.1853    0.0000 H       1  UNL1        0.0532
     44 H           3.6115    3.5357    0.0000 H       1  UNL1        0.0639
     45 H           1.4648    1.6177    0.0000 H       1  UNL1        0.0618
     46 H           1.9795    3.2020    0.0000 H       1  UNL1        0.0618
@<TRIPOS>UNITY_ATOM_ATTR
2 1
charge -1
3 1
charge 1
@<TRIPOS>BOND
     1     1    14    1
     2     1    15    1
     3     2     3    1
     4     3     8    1
     5     3    11    1
     6     3    18    1
     7     4    13    2
     8     4    19    1
     9     5     6    1
    10     5     7    1
    11     5    11    1
    12     5    17    1
    13     6    10    1
    14     6    13    1
    15     6    16    1
    16     7     9    1
    17     7    12    1
    18     7    25    1
    19     8     9    1
    20     8    10    1
    21     8    26    1
    22     9    15    1
    23     9    27    1
    24    10    28    1
    25    10    29    1
    26    11    30    1
    27    11    31    1
    28    12    14    1
    29    12    32    1
    30    12    33    1
    31    13    14    1
    32    14    34    1
    33    15    35    1
    34    15    36    1
    35    16    19   ar
    36    16    20   ar
    37    17    21    2
    38    17    37    1
    39    18    38    1
    40    18    39    1
    41    18    40    1
    42    19    22   ar
    43    20    23   ar
    44    20    41    1
    45    21    42    1
    46    21    43    1
    47    22    24   ar
    48    22    44    1
    49    23    24   ar
    50    23    45    1
    51    24    46    1
