@<TRIPOS>MOLECULE
IMPHY000636
 51 54 0 0 0
SMALL
GASTEIGER

@<TRIPOS>ATOM
      1 O           7.7244    0.0187    0.0000 O.3     1  UNL1       -0.3707
      2 O           4.6557    0.0187    0.0000 O.3     1  UNL1       -0.4559
      3 O           4.9344    1.7788    0.0000 O.2     1  UNL1       -0.2504
      4 O           2.6691   -3.1082    0.0000 O.3     1  UNL1       -0.4913
      5 O           9.7191    3.1369    0.0000 O.3     1  UNL1       -0.4950
      6 O           5.9637   -4.1787    0.0000 O.3     1  UNL1       -0.5032
      7 O           6.4264    4.2131    0.0000 O.3     1  UNL1       -0.5066
      8 O           4.0074   -4.5945    0.0000 O.3     1  UNL1       -0.4885
      9 C           6.1945   -0.4813    0.0000 C.3     1  UNL1        0.0394
     10 C           6.1945    0.5187    0.0000 C.3     1  UNL1        0.0952
     11 C           7.1407    0.8235    0.0000 C.3     1  UNL1        0.0972
     12 C           5.2435   -0.7903    0.0000 C.3     1  UNL1        0.1340
     13 C           7.1407   -0.7860    0.0000 C.3     1  UNL1        0.0558
     14 C           5.2435    0.8277    0.0000 C.2     1  UNL1        0.3141
     15 C           4.9344   -1.7414    0.0000 C.ar    1  UNL1        0.0002
     16 C           7.4514    1.7740    0.0000 C.ar    1  UNL1       -0.0112
     17 C           3.9563   -1.9493    0.0000 C.ar    1  UNL1       -0.0094
     18 C           5.6036   -2.4845    0.0000 C.ar    1  UNL1       -0.0096
     19 C           8.4299    1.9802    0.0000 C.ar    1  UNL1       -0.0141
     20 C           6.7836    2.5183    0.0000 C.ar    1  UNL1       -0.0143
     21 C           3.6473   -2.9003    0.0000 C.ar    1  UNL1        0.1655
     22 C           5.2946   -3.4356    0.0000 C.ar    1  UNL1        0.1625
     23 C           8.7406    2.9307    0.0000 C.ar    1  UNL1        0.1239
     24 C           7.0942    3.4688    0.0000 C.ar    1  UNL1        0.1207
     25 C           4.3164   -3.6435    0.0000 C.ar    1  UNL1        0.2033
     26 C           8.0727    3.6750    0.0000 C.ar    1  UNL1        0.0215
     27 C           2.0000   -2.3651    0.0000 C.3     1  UNL1        0.0790
     28 C          10.0297    4.0875    0.0000 C.3     1  UNL1        0.0788
     29 C           3.0292   -4.8024    0.0000 C.3     1  UNL1        0.0791
     30 H           6.1956   -1.3313    0.0000 H       1  UNL1        0.0371
     31 H           6.1956    1.3687    0.0000 H       1  UNL1        0.0447
     32 H           7.7532    0.9197    0.0000 H       1  UNL1        0.0654
     33 H           4.6311   -0.8873    0.0000 H       1  UNL1        0.0789
     34 H           6.8897   -1.3529    0.0000 H       1  UNL1        0.0564
     35 H           7.6781   -1.0952    0.0000 H       1  UNL1        0.0564
     36 H           3.5414   -1.4885    0.0000 H       1  UNL1        0.0659
     37 H           6.2100   -2.3556    0.0000 H       1  UNL1        0.0659
     38 H           8.8440    1.5187    0.0000 H       1  UNL1        0.0658
     39 H           6.1769    2.3904    0.0000 H       1  UNL1        0.0658
     40 H           8.2653    4.2643    0.0000 H       1  UNL1        0.0691
     41 H           6.5701   -4.0498    0.0000 H       1  UNL1        0.2923
     42 H           6.6190    4.8024    0.0000 H       1  UNL1        0.2921
     43 H           2.4608   -1.9502    0.0000 H       1  UNL1        0.0660
     44 H           1.5851   -1.9043    0.0000 H       1  UNL1        0.0660
     45 H           1.5392   -2.7799    0.0000 H       1  UNL1        0.0660
     46 H          10.6191    3.8948    0.0000 H       1  UNL1        0.0660
     47 H          10.2223    4.6768    0.0000 H       1  UNL1        0.0660
     48 H           9.4404    4.2801    0.0000 H       1  UNL1        0.0660
     49 H           2.9003   -4.1960    0.0000 H       1  UNL1        0.0660
     50 H           2.4228   -4.9313    0.0000 H       1  UNL1        0.0660
     51 H           3.1582   -5.4089    0.0000 H       1  UNL1        0.0660
@<TRIPOS>BOND
     1     1    11    1
     2     1    13    1
     3     2    12    1
     4     2    14    1
     5     3    14    2
     6     4    21    1
     7     4    27    1
     8     5    23    1
     9     5    28    1
    10     6    22    1
    11     6    41    1
    12     7    24    1
    13     7    42    1
    14     8    25    1
    15     8    29    1
    16     9    10    1
    17     9    12    1
    18     9    13    1
    19     9    30    1
    20    10    11    1
    21    10    14    1
    22    10    31    1
    23    11    16    1
    24    11    32    1
    25    12    15    1
    26    12    33    1
    27    13    34    1
    28    13    35    1
    29    15    17   ar
    30    15    18   ar
    31    16    19   ar
    32    16    20   ar
    33    17    21   ar
    34    17    36    1
    35    18    22   ar
    36    18    37    1
    37    19    23   ar
    38    19    38    1
    39    20    24   ar
    40    20    39    1
    41    21    25   ar
    42    22    25   ar
    43    23    26   ar
    44    24    26   ar
    45    26    40    1
    46    27    43    1
    47    27    44    1
    48    27    45    1
    49    28    46    1
    50    28    47    1
    51    28    48    1
    52    29    49    1
    53    29    50    1
    54    29    51    1
