@<TRIPOS>MOLECULE
IMPHY010085
 124 129 0 0 0
SMALL
GASTEIGER

@<TRIPOS>ATOM
      1 O           9.2894    0.1030    0.0000 O.3     1  UNL1       -0.3451
      2 O           8.3898    5.6689    0.0000 O.3     1  UNL1       -0.3915
      3 O          12.9343    1.1340    0.0000 O.3     1  UNL1       -0.3912
      4 O           7.5573    0.1030    0.0000 O.3     1  UNL1       -0.3405
      5 O           9.2894   -1.8970    0.0000 O.3     1  UNL1       -0.3378
      6 O           7.5573   -2.8970    0.0000 O.3     1  UNL1       -0.3864
      7 O           5.8252   -1.8970    0.0000 O.3     1  UNL1       -0.3865
      8 O           8.4233   -3.3970    0.0000 O.3     1  UNL1       -0.3431
      9 O           4.9592   -0.3970    0.0000 O.3     1  UNL1       -0.3924
     10 O          11.0214   -2.8970    0.0000 O.3     1  UNL1       -0.3841
     11 O          11.0214   -4.8970    0.0000 O.3     1  UNL1       -0.3864
     12 O           9.2894   -5.8970    0.0000 O.3     1  UNL1       -0.3866
     13 C           8.4013    2.6689    0.0000 C.3     1  UNL1       -0.0206
     14 C           9.2654    3.1722    0.0000 C.3     1  UNL1       -0.0269
     15 C           7.5334    3.1656    0.0000 C.3     1  UNL1       -0.0206
     16 C          10.1774    2.6689    0.0000 C.3     1  UNL1       -0.0228
     17 C           7.5295    4.1655    0.0000 C.3     1  UNL1       -0.0026
     18 C          10.1894    1.6273    0.0000 C.3     1  UNL1       -0.0014
     19 C           8.3893    1.6273    0.0000 C.3     1  UNL1       -0.0200
     20 C           9.2616    4.1722    0.0000 C.3     1  UNL1       -0.0227
     21 C           9.2894    1.1030    0.0000 C.3     1  UNL1        0.0662
     22 C           8.3936    4.6689    0.0000 C.3     1  UNL1        0.0594
     23 C           6.5884    2.8572    0.0000 C.3     1  UNL1       -0.0462
     24 C          11.1270    1.0812    0.0000 C.3     1  UNL1       -0.0032
     25 C           6.5821    4.4666    0.0000 C.3     1  UNL1       -0.0145
     26 C          11.1020    3.2365    0.0000 C.3     1  UNL1       -0.0446
     27 C           6.0016    3.6596    0.0000 C.3     1  UNL1       -0.0456
     28 C           7.7615    1.9004    0.0000 C.3     1  UNL1       -0.0587
     29 C           7.1950    2.2245    0.0000 C.3     1  UNL1       -0.0587
     30 C          10.1658    3.6688    0.0000 C.3     1  UNL1       -0.0589
     31 C          12.0645    1.6273    0.0000 C.3     1  UNL1        0.0607
     32 C          12.0519    2.7122    0.0000 C.3     1  UNL1       -0.0258
     33 C          11.6270    0.2152    0.0000 C.3     1  UNL1       -0.0571
     34 C          10.6270    0.2152    0.0000 C.3     1  UNL1       -0.0571
     35 C           6.2678    5.4159    0.0000 C.2     1  UNL1       -0.0728
     36 C           8.4233   -0.3970    0.0000 C.3     1  UNL1        0.1886
     37 C           6.9328    6.1628    0.0000 C.3     1  UNL1       -0.0435
     38 C           5.2885    5.6184    0.0000 C.2     1  UNL1       -0.0810
     39 C           8.4233   -1.3970    0.0000 C.3     1  UNL1        0.1406
     40 C           4.6236    4.8715    0.0000 C.3     1  UNL1       -0.0161
     41 C           7.5573   -1.8970    0.0000 C.3     1  UNL1        0.1144
     42 C           6.6913   -0.3970    0.0000 C.3     1  UNL1        0.1130
     43 C           6.6913   -1.3970    0.0000 C.3     1  UNL1        0.1119
     44 C           3.6443    5.0740    0.0000 C.2     1  UNL1       -0.0815
     45 C           5.8252    0.1030    0.0000 C.3     1  UNL1        0.0730
     46 C           9.2894   -2.8970    0.0000 C.3     1  UNL1        0.1884
     47 C           2.9793    4.3271    0.0000 C.2     1  UNL1       -0.0793
     48 C          10.1554   -3.3970    0.0000 C.3     1  UNL1        0.1341
     49 C          10.1554   -4.3970    0.0000 C.3     1  UNL1        0.1140
     50 C           8.4233   -4.3970    0.0000 C.3     1  UNL1        0.0873
     51 C           9.2894   -4.8970    0.0000 C.3     1  UNL1        0.1095
     52 C           2.0000    4.5295    0.0000 C.3     1  UNL1       -0.0440
     53 C           3.2936    3.3778    0.0000 C.3     1  UNL1       -0.0440
     54 C           7.5573   -4.8970    0.0000 C.3     1  UNL1       -0.0361
     55 H           9.9966    3.6057    0.0000 H       1  UNL1        0.0312
     56 H           7.4363    5.0104    0.0000 H       1  UNL1        0.0337
     57 H          10.1894    0.7773    0.0000 H       1  UNL1        0.0337
     58 H           7.7797    1.7405    0.0000 H       1  UNL1        0.0296
     59 H           8.1735    1.0461    0.0000 H       1  UNL1        0.0296
     60 H           9.8726    4.0669    0.0000 H       1  UNL1        0.0293
     61 H           9.4714    4.7556    0.0000 H       1  UNL1        0.0293
     62 H           8.7518    0.7941    0.0000 H       1  UNL1        0.0600
     63 H           8.9294    4.9809    0.0000 H       1  UNL1        0.0596
     64 H           6.0522    2.5459    0.0000 H       1  UNL1        0.0271
     65 H           6.8416    2.2912    0.0000 H       1  UNL1        0.0271
     66 H           7.0179    4.9077    0.0000 H       1  UNL1        0.0349
     67 H          11.4901    3.7201    0.0000 H       1  UNL1        0.0271
     68 H          10.6920    3.7016    0.0000 H       1  UNL1        0.0271
     69 H           5.5392    4.0726    0.0000 H       1  UNL1        0.0271
     70 H           5.5424    3.2432    0.0000 H       1  UNL1        0.0271
     71 H           7.2850    2.2971    0.0000 H       1  UNL1        0.0235
     72 H           7.3648    1.4239    0.0000 H       1  UNL1        0.0235
     73 H           8.2379    1.5037    0.0000 H       1  UNL1        0.0235
     74 H           6.6116    2.4343    0.0000 H       1  UNL1        0.0235
     75 H           6.9852    1.6411    0.0000 H       1  UNL1        0.0235
     76 H           7.7784    2.0147    0.0000 H       1  UNL1        0.0235
     77 H          10.7858    3.6760    0.0000 H       1  UNL1        0.0235
     78 H          10.1586    4.2888    0.0000 H       1  UNL1        0.0235
     79 H           9.5458    3.6616    0.0000 H       1  UNL1        0.0235
     80 H          12.5984    1.9425    0.0000 H       1  UNL1        0.0599
     81 H          12.6640    2.6132    0.0000 H       1  UNL1        0.0290
     82 H          12.2542    3.2983    0.0000 H       1  UNL1        0.0290
     83 H          10.0900    0.5252    0.0000 H       1  UNL1        0.0236
     84 H          10.3170   -0.3217    0.0000 H       1  UNL1        0.0236
     85 H          11.0900   -0.0948    0.0000 H       1  UNL1        0.0236
     86 H          11.9370   -0.3217    0.0000 H       1  UNL1        0.0236
     87 H          12.1639    0.5252    0.0000 H       1  UNL1        0.0236
     88 H          11.1639   -0.0948    0.0000 H       1  UNL1        0.0236
     89 H           8.9255    5.9809    0.0000 H       1  UNL1        0.2098
     90 H           8.9603   -0.7070    0.0000 H       1  UNL1        0.0938
     91 H          13.4689    1.4482    0.0000 H       1  UNL1        0.2098
     92 H           7.3958    5.7505    0.0000 H       1  UNL1        0.0274
     93 H           7.3451    6.6259    0.0000 H       1  UNL1        0.0274
     94 H           6.4697    6.5751    0.0000 H       1  UNL1        0.0274
     95 H           5.0936    6.2070    0.0000 H       1  UNL1        0.0575
     96 H           8.4233   -2.0170    0.0000 H       1  UNL1        0.0675
     97 H           4.3945    4.2954    0.0000 H       1  UNL1        0.0350
     98 H           5.1512    4.5459    0.0000 H       1  UNL1        0.0350
     99 H           7.0204   -2.2070    0.0000 H       1  UNL1        0.0648
    100 H           6.6913    0.2230    0.0000 H       1  UNL1        0.0647
    101 H           6.1543   -1.0870    0.0000 H       1  UNL1        0.0647
    102 H           3.4494    5.6625    0.0000 H       1  UNL1        0.0575
    103 H           6.2238    0.5780    0.0000 H       1  UNL1        0.0584
    104 H           5.4267    0.5780    0.0000 H       1  UNL1        0.0584
    105 H           8.7524   -2.5870    0.0000 H       1  UNL1        0.0938
    106 H           7.0204   -3.2070    0.0000 H       1  UNL1        0.2100
    107 H           5.8252   -2.5170    0.0000 H       1  UNL1        0.2100
    108 H          10.6923   -3.7070    0.0000 H       1  UNL1        0.0671
    109 H           4.4223   -0.0870    0.0000 H       1  UNL1        0.2095
    110 H          10.1554   -5.0170    0.0000 H       1  UNL1        0.0648
    111 H           7.8864   -4.0870    0.0000 H       1  UNL1        0.0621
    112 H           8.7524   -5.2070    0.0000 H       1  UNL1        0.0646
    113 H           2.7050    3.1829    0.0000 H       1  UNL1        0.0274
    114 H           3.4885    2.7892    0.0000 H       1  UNL1        0.0274
    115 H           3.8822    3.5726    0.0000 H       1  UNL1        0.0274
    116 H           2.1255    5.1367    0.0000 H       1  UNL1        0.0274
    117 H           1.3928    4.6550    0.0000 H       1  UNL1        0.0274
    118 H           1.8745    3.9224    0.0000 H       1  UNL1        0.0274
    119 H          11.5583   -3.2070    0.0000 H       1  UNL1        0.2101
    120 H           7.2473   -4.3600    0.0000 H       1  UNL1        0.0255
    121 H           7.0204   -5.2070    0.0000 H       1  UNL1        0.0255
    122 H           7.8673   -5.4339    0.0000 H       1  UNL1        0.0255
    123 H          11.0214   -5.5170    0.0000 H       1  UNL1        0.2100
    124 H           8.7524   -6.2070    0.0000 H       1  UNL1        0.2100
@<TRIPOS>BOND
     1    21     1    1
     2    36     1    1
     3    22     2    1
     4     2    89    1
     5    31     3    1
     6     3    91    1
     7     4    36    1
     8     4    42    1
     9    39     5    1
    10    46     5    1
    11    41     6    1
    12     6   106    1
    13    43     7    1
    14     7   107    1
    15     8    46    1
    16     8    50    1
    17     9    45    1
    18     9   109    1
    19    48    10    1
    20    10   119    1
    21    49    11    1
    22    11   123    1
    23    51    12    1
    24    12   124    1
    25    13    14    1
    26    13    15    1
    27    13    19    1
    28    13    28    1
    29    14    16    1
    30    14    20    1
    31    14    55    1
    32    15    17    1
    33    15    23    1
    34    15    29    1
    35    16    18    1
    36    16    26    1
    37    16    30    1
    38    17    22    1
    39    17    25    1
    40    17    56    1
    41    18    21    1
    42    18    24    1
    43    18    57    1
    44    19    21    1
    45    19    58    1
    46    19    59    1
    47    20    22    1
    48    20    60    1
    49    20    61    1
    50    21    62    1
    51    22    63    1
    52    23    27    1
    53    23    64    1
    54    23    65    1
    55    24    31    1
    56    24    33    1
    57    24    34    1
    58    25    27    1
    59    25    35    1
    60    25    66    1
    61    26    32    1
    62    26    67    1
    63    26    68    1
    64    27    69    1
    65    27    70    1
    66    28    71    1
    67    28    72    1
    68    28    73    1
    69    29    74    1
    70    29    75    1
    71    29    76    1
    72    30    77    1
    73    30    78    1
    74    30    79    1
    75    31    32    1
    76    31    80    1
    77    32    81    1
    78    32    82    1
    79    33    85    1
    80    33    86    1
    81    33    87    1
    82    34    83    1
    83    34    84    1
    84    34    88    1
    85    35    37    1
    86    35    38    2
    87    36    39    1
    88    36    90    1
    89    37    92    1
    90    37    93    1
    91    37    94    1
    92    38    40    1
    93    38    95    1
    94    39    41    1
    95    39    96    1
    96    40    44    1
    97    40    97    1
    98    40    98    1
    99    41    43    1
   100    41    99    1
   101    42    43    1
   102    42    45    1
   103    42   100    1
   104    43   101    1
   105    44    47    2
   106    44   102    1
   107    45   103    1
   108    45   104    1
   109    46    48    1
   110    46   105    1
   111    47    52    1
   112    47    53    1
   113    48    49    1
   114    48   108    1
   115    49    51    1
   116    49   110    1
   117    50    51    1
   118    50    54    1
   119    50   111    1
   120    51   112    1
   121    52   116    1
   122    52   117    1
   123    52   118    1
   124    53   113    1
   125    53   114    1
   126    53   115    1
   127    54   120    1
   128    54   121    1
   129    54   122    1
