@<TRIPOS>MOLECULE
IMPHY010686
 67 75 0 0 0
SMALL
GASTEIGER

@<TRIPOS>ATOM
      1 O           3.4314   -1.9639    0.0000 O.3     1  UNL1       -0.3257
      2 C           2.2876   -1.3164    0.0000 C.3     1  UNL1        0.1803
      3 C           1.1438   -1.9639    0.0000 C.3     1  UNL1        0.2143
      4 C           1.1438   -3.2803    0.0000 C.3     1  UNL1        0.2198
      5 C           2.2876   -3.9493    0.0000 C.3     1  UNL1        0.2406
      6 C           3.4314   -3.2803    0.0000 C.3     1  UNL1        0.2696
      7 O           0.0000   -1.3164    0.0000 O.3     1  UNL1       -0.2176
      8 O           0.0000   -3.9493    0.0000 O.3     1  UNL1       -0.2174
      9 O           2.2876   -5.2873    0.0000 O.3     1  UNL1       -0.2149
     10 O           4.5751   -3.9493    0.0000 O.3     1  UNL1       -0.3231
     11 C           5.7189   -3.2803    0.0000 C.3     1  UNL1        0.2066
     12 C           6.8627   -3.9493    0.0000 C.3     1  UNL1        0.2662
     13 O           8.0065   -3.2803    0.0000 O.3     1  UNL1       -0.3284
     14 C           8.0065   -1.9639    0.0000 C.3     1  UNL1        0.1508
     15 C           6.8627   -1.3164    0.0000 C.3     1  UNL1        0.2117
     16 C           5.7189   -1.9639    0.0000 C.3     1  UNL1        0.2165
     17 O           6.8627   -5.2873    0.0000 O.3     1  UNL1       -0.3259
     18 C           8.0065   -5.9347    0.0000 C.3     1  UNL1        0.1770
     19 C           8.0065   -7.2512    0.0000 C.3     1  UNL1        0.1802
     20 O           9.1503   -7.9202    0.0000 O.3     1  UNL1       -0.3257
     21 C           9.1503   -9.2366    0.0000 C.3     1  UNL1        0.2694
     22 C           8.0065   -9.9056    0.0000 C.3     1  UNL1        0.2406
     23 C           6.8627   -9.2366    0.0000 C.3     1  UNL1        0.2198
     24 C           6.8627   -7.9202    0.0000 C.3     1  UNL1        0.2143
     25 C           9.1503   -1.3164    0.0000 C.3     1  UNL1        0.0350
     26 O           6.8627    0.0000    0.0000 O.3     1  UNL1       -0.2177
     27 O           4.5751   -1.3164    0.0000 O.3     1  UNL1       -0.2175
     28 O          10.2941   -9.9056    0.0000 O.3     1  UNL1       -0.3311
     29 C          11.4379   -9.2150    0.0000 C.3     1  UNL1        0.1174
     30 C          12.5817   -9.8840    0.0000 C.3     1  UNL1        0.0218
     31 C          13.6823   -9.2150    0.0000 C.3     1  UNL1       -0.0171
     32 C          13.6823   -7.9202    0.0000 C.3     1  UNL1       -0.0063
     33 C          14.8045   -7.2512    0.0000 C.3     1  UNL1       -0.0150
     34 C          15.9483   -7.8986    0.0000 C.3     1  UNL1        0.0001
     35 C          15.9483   -9.1719    0.0000 C.3     1  UNL1       -0.0003
     36 C          14.8261   -9.8625    0.0000 C.3     1  UNL1       -0.0039
     37 C          11.4379   -7.9418    0.0000 C.3     1  UNL1        0.0296
     38 C          12.5601   -7.2728    0.0000 C.3     1  UNL1        0.0019
     39 C          14.8045   -5.9563    0.0000 C.3     1  UNL1        0.0214
     40 C          15.9267   -5.3089    0.0000 C.2     1  UNL1       -0.0352
     41 C          17.0489   -5.9563    0.0000 C.2     1  UNL1       -0.0527
     42 C          17.0489   -7.2512    0.0000 C.3     1  UNL1        0.0168
     43 C          18.1711   -7.8986    0.0000 C.3     1  UNL1        0.0371
     44 C          19.3149   -7.2296    0.0000 C.3     1  UNL1        0.1623
     45 C          19.3149   -5.9347    0.0000 C.3     1  UNL1        0.1207
     46 C          20.4371   -5.2657    0.0000 C.3     1  UNL1        0.0567
     47 C          20.4371   -3.9493    0.0000 C.3     1  UNL1        0.1692
     48 O          21.5809   -4.5751    0.0000 O.3     1  UNL1       -0.4522
     49 C          20.4587   -6.5606    0.0000 C.2     1  UNL1        0.3183
     50 C          18.1495   -5.2873    0.0000 C.3     1  UNL1        0.0081
     51 C          18.1495   -3.9709    0.0000 C.3     1  UNL1        0.0038
     52 C          19.2933   -3.2803    0.0000 C.3     1  UNL1        0.0370
     53 O           8.0065  -11.2221    0.0000 O.3     1  UNL1       -0.2149
     54 O           5.7189   -9.9056    0.0000 O.3     1  UNL1       -0.2174
     55 O           5.7189   -7.2512    0.0000 O.3     1  UNL1       -0.2176
     56 C          13.2291  -11.1573    0.0000 C.3     1  UNL1        0.0021
     57 C          11.8911  -11.1573    0.0000 C.3     1  UNL1        0.0021
     58 C          13.6607   -6.5390    0.0000 C.3     1  UNL1       -0.0006
     59 C          15.9267   -6.5822    0.0000 C.3     1  UNL1        0.0000
     60 C          17.0705   -8.5460    0.0000 C.3     1  UNL1        0.0041
     61 O          19.9407   -8.5029    0.0000 O.3     1  UNL1       -0.2226
     62 O          20.8903   -7.8123    0.0000 O.2     1  UNL1       -0.2500
     63 C          18.6243   -2.1581    0.0000 C.3     1  UNL1        0.0036
     64 C          19.9407   -2.1365    0.0000 C.3     1  UNL1        0.0036
     65 H          14.8045   -8.5460    0.0000 H       1  UNL1        0.0322
     66 H          13.7039  -10.4020    0.0000 H       1  UNL1        0.0319
     67 H          18.1495   -6.6038    0.0000 H       1  UNL1        0.0364
@<TRIPOS>BOND
     1     1     6    1
     2     1     2    1
     3     2     3    1
     4     3     4    1
     5     3     7    1
     6     4     5    1
     7     4     8    1
     8     5     6    1
     9     5     9    1
    10     6    10    1
    11    11    10    1
    12    11    12    1
    13    11    16    1
    14    12    17    1
    15    12    13    1
    16    13    14    1
    17    14    15    1
    18    14    25    1
    19    15    16    1
    20    15    26    1
    21    16    27    1
    22    17    18    1
    23    19    18    1
    24    19    20    1
    25    19    24    1
    26    20    21    1
    27    21    28    1
    28    21    22    1
    29    22    23    1
    30    22    53    1
    31    23    24    1
    32    23    54    1
    33    24    55    1
    34    29    28    1
    35    29    30    1
    36    29    37    1
    37    30    31    1
    38    30    56    1
    39    30    57    1
    40    31    32    1
    41    31    36    1
    42    31    66    1
    43    32    38    1
    44    32    33    1
    45    32    58    1
    46    33    34    1
    47    33    39    1
    48    33    65    1
    49    34    35    1
    50    34    42    1
    51    34    59    1
    52    35    36    1
    53    37    38    1
    54    39    40    1
    55    40    41    2
    56    41    50    1
    57    41    42    1
    58    42    60    1
    59    42    43    1
    60    43    44    1
    61    44    45    1
    62    44    61    1
    63    45    46    1
    64    45    50    1
    65    45    49    1
    66    47    46    1
    67    47    52    1
    68    47    48    1
    69    48    49    1
    70    49    62    2
    71    50    51    1
    72    50    67    1
    73    51    52    1
    74    52    63    1
    75    52    64    1
