@<TRIPOS>MOLECULE
IMPHY006517
 29 30 0 0 0
SMALL
GASTEIGER

@<TRIPOS>ATOM
      1 O           6.9473    1.3047    0.0000 O.3     1  UNL1       -0.4488
      2 O           6.9473   -0.3047    0.0000 O.3     1  UNL1       -0.4524
      3 O           5.1350    2.5000    0.0000 O.3     1  UNL1       -0.4884
      4 O           3.4030    1.5000    0.0000 O.3     1  UNL1       -0.4907
      5 O           2.5369   -3.0000    0.0000 O.2     1  UNL1       -0.2963
      6 C           6.0010    1.0000    0.0000 C.ar    1  UNL1        0.2112
      7 C           6.0010    0.0000    0.0000 C.ar    1  UNL1        0.1707
      8 C           5.1350    1.5000    0.0000 C.ar    1  UNL1        0.2080
      9 C           4.2690    0.0000    0.0000 C.ar    1  UNL1        0.0241
     10 C           4.2690    1.0000    0.0000 C.ar    1  UNL1        0.1725
     11 C           5.1350   -0.5000    0.0000 C.ar    1  UNL1       -0.0053
     12 C           7.5309    0.5000    0.0000 C.3     1  UNL1        0.2334
     13 C           3.4030   -0.5000    0.0000 C.2     1  UNL1       -0.0478
     14 C           6.0010    3.0000    0.0000 C.3     1  UNL1        0.0791
     15 C           3.4030   -1.5000    0.0000 C.2     1  UNL1       -0.0218
     16 C           3.4030    2.5000    0.0000 C.3     1  UNL1        0.0790
     17 C           2.5369   -2.0000    0.0000 C.2     1  UNL1        0.1431
     18 H           5.1350   -1.1200    0.0000 H       1  UNL1        0.0662
     19 H           7.9917    0.0853    0.0000 H       1  UNL1        0.1166
     20 H           7.9917    0.9147    0.0000 H       1  UNL1        0.1166
     21 H           2.8660   -0.1900    0.0000 H       1  UNL1        0.0626
     22 H           6.3110    2.4631    0.0000 H       1  UNL1        0.0660
     23 H           6.5380    3.3100    0.0000 H       1  UNL1        0.0660
     24 H           5.6910    3.5369    0.0000 H       1  UNL1        0.0660
     25 H           3.9399   -1.8100    0.0000 H       1  UNL1        0.0650
     26 H           4.0230    2.5000    0.0000 H       1  UNL1        0.0660
     27 H           3.4030    3.1200    0.0000 H       1  UNL1        0.0660
     28 H           2.7830    2.5000    0.0000 H       1  UNL1        0.0660
     29 H           2.0000   -1.6900    0.0000 H       1  UNL1        0.1075
@<TRIPOS>BOND
     1     1     6    1
     2     1    12    1
     3     2     7    1
     4     2    12    1
     5     3     8    1
     6     3    14    1
     7     4    10    1
     8     4    16    1
     9     5    17    2
    10     6     7   ar
    11     6     8   ar
    12     7    11   ar
    13     8    10   ar
    14     9    10   ar
    15     9    11   ar
    16     9    13    1
    17    11    18    1
    18    12    19    1
    19    12    20    1
    20    13    15    2
    21    13    21    1
    22    14    22    1
    23    14    23    1
    24    14    24    1
    25    15    17    1
    26    15    25    1
    27    16    26    1
    28    16    27    1
    29    16    28    1
    30    17    29    1
