@<TRIPOS>MOLECULE
IMPHY003485
 26 25 0 0 0
SMALL
GASTEIGER

@<TRIPOS>ATOM
      1 C           5.4641    0.2500    0.0000 C.3     1  UNL1       -0.0306
      2 C           4.5981    0.7500    0.0000 C.3     1  UNL1       -0.0248
      3 C           6.3301    0.7500    0.0000 C.2     1  UNL1       -0.0850
      4 C           7.1962    0.2500    0.0000 C.2     1  UNL1       -0.0796
      5 C           3.7320    0.2500    0.0000 C.2     1  UNL1       -0.0547
      6 C           8.0622    0.7500    0.0000 C.3     1  UNL1       -0.0440
      7 C           7.1962   -0.7500    0.0000 C.3     1  UNL1       -0.0440
      8 C           2.8660    0.7500    0.0000 C.2     1  UNL1       -0.0662
      9 C           3.7320   -0.7500    0.0000 C.2     1  UNL1       -0.0955
     10 C           2.0000    0.2500    0.0000 C.2     1  UNL1       -0.0985
     11 H           5.0656   -0.2249    0.0000 H       1  UNL1        0.0311
     12 H           5.8626   -0.2249    0.0000 H       1  UNL1        0.0311
     13 H           4.9966    1.2250    0.0000 H       1  UNL1        0.0316
     14 H           4.1996    1.2250    0.0000 H       1  UNL1        0.0316
     15 H           6.3301    1.3700    0.0000 H       1  UNL1        0.0572
     16 H           8.3722    0.2131    0.0000 H       1  UNL1        0.0274
     17 H           8.5991    1.0600    0.0000 H       1  UNL1        0.0274
     18 H           7.7522    1.2869    0.0000 H       1  UNL1        0.0274
     19 H           6.5762   -0.7500    0.0000 H       1  UNL1        0.0274
     20 H           7.1962   -1.3700    0.0000 H       1  UNL1        0.0274
     21 H           7.8162   -0.7500    0.0000 H       1  UNL1        0.0274
     22 H           2.8660    1.3700    0.0000 H       1  UNL1        0.0614
     23 H           3.1951   -1.0600    0.0000 H       1  UNL1        0.0537
     24 H           4.2690   -1.0600    0.0000 H       1  UNL1        0.0537
     25 H           1.4631    0.5600    0.0000 H       1  UNL1        0.0535
     26 H           2.0000   -0.3700    0.0000 H       1  UNL1        0.0535
@<TRIPOS>BOND
     1     1     2    1
     2     1     3    1
     3     1    11    1
     4     1    12    1
     5     2     5    1
     6     2    13    1
     7     2    14    1
     8     3     4    2
     9     3    15    1
    10     4     6    1
    11     4     7    1
    12     5     8    1
    13     5     9    2
    14     6    16    1
    15     6    17    1
    16     6    18    1
    17     7    19    1
    18     7    20    1
    19     7    21    1
    20     8    10    2
    21     8    22    1
    22     9    23    1
    23     9    24    1
    24    10    25    1
    25    10    26    1
