@<TRIPOS>MOLECULE
IMPHY004457
 101 105 0 0 0
SMALL
GASTEIGER

@<TRIPOS>ATOM
      1 O           5.4564   -3.3760    0.0000 O.3     1  UNL1       -0.4580
      2 O           4.5961   -1.8727    0.0000 O.2     1  UNL1       -0.2456
      3 O           4.6038    0.1273    0.0000 O.3     1  UNL1       -0.4914
      4 O           2.8757    1.1340    0.0000 O.3     1  UNL1       -0.5033
      5 C          10.8495   -0.3237    0.0000 C.3     1  UNL1       -0.0259
      6 C          10.8495   -1.3237    0.0000 C.3     1  UNL1       -0.0320
      7 C           9.9834   -1.8237    0.0000 C.3     1  UNL1       -0.0307
      8 C           9.1174   -1.3237    0.0000 C.3     1  UNL1       -0.0285
      9 C          11.7957   -0.0190    0.0000 C.3     1  UNL1       -0.0328
     10 C           9.9834    0.1763    0.0000 C.3     1  UNL1       -0.0468
     11 C           8.2074   -1.8305    0.0000 C.3     1  UNL1       -0.0077
     12 C          11.7957   -1.6284    0.0000 C.3     1  UNL1       -0.0492
     13 C           9.1174   -0.3237    0.0000 C.3     1  UNL1       -0.0486
     14 C          12.3793   -0.8237    0.0000 C.3     1  UNL1       -0.0492
     15 C           9.9995   -2.8652    0.0000 C.3     1  UNL1       -0.0311
     16 C          12.1063    0.9316    0.0000 C.3     1  UNL1       -0.0405
     17 C          10.8495    0.6763    0.0000 C.3     1  UNL1       -0.0590
     18 C           8.1994   -2.8721    0.0000 C.2     1  UNL1       -0.0638
     19 C           7.2806   -1.2665    0.0000 C.3     1  UNL1       -0.0403
     20 C           9.1014   -3.3930    0.0000 C.2     1  UNL1       -0.0838
     21 C           8.2151   -0.8306    0.0000 C.3     1  UNL1       -0.0556
     22 C           7.2640   -3.4219    0.0000 C.3     1  UNL1        0.0061
     23 C           6.3327   -1.7944    0.0000 C.3     1  UNL1       -0.0146
     24 C          13.0848    1.1378    0.0000 C.3     1  UNL1       -0.0499
     25 C           6.3243   -2.8794    0.0000 C.3     1  UNL1        0.1071
     26 C          11.4385    1.6759    0.0000 C.3     1  UNL1       -0.0621
     27 C          13.3955    2.0883    0.0000 C.3     1  UNL1       -0.0497
     28 C          14.3740    2.2945    0.0000 C.3     1  UNL1       -0.0389
     29 C          14.6847    3.2450    0.0000 C.3     1  UNL1       -0.0439
     30 C          15.0419    1.5502    0.0000 C.3     1  UNL1       -0.0528
     31 C           4.5923   -2.8727    0.0000 C.2     1  UNL1        0.3322
     32 C          15.6632    3.4513    0.0000 C.3     1  UNL1       -0.0624
     33 C          14.0168    3.9893    0.0000 C.3     1  UNL1       -0.0624
     34 C          16.0204    1.7564    0.0000 C.3     1  UNL1       -0.0650
     35 C           3.7243   -3.3694    0.0000 C.2     1  UNL1        0.0231
     36 C           2.8602   -2.8660    0.0000 C.2     1  UNL1       -0.0477
     37 C           2.8641   -1.8660    0.0000 C.ar    1  UNL1       -0.0211
     38 C           3.7320   -1.3694    0.0000 C.ar    1  UNL1       -0.0092
     39 C           2.0000   -1.3627    0.0000 C.ar    1  UNL1       -0.0509
     40 C           3.7359   -0.3694    0.0000 C.ar    1  UNL1        0.1618
     41 C           2.0038   -0.3627    0.0000 C.ar    1  UNL1       -0.0160
     42 C           2.8718    0.1340    0.0000 C.ar    1  UNL1        0.1585
     43 C           4.6077    1.1273    0.0000 C.3     1  UNL1        0.0790
     44 H          10.9394   -2.1689    0.0000 H       1  UNL1        0.0309
     45 H          10.7228   -2.2430    0.0000 H       1  UNL1        0.0309
     46 H           9.8535   -0.8987    0.0000 H       1  UNL1        0.0312
     47 H          12.4082    0.0772    0.0000 H       1  UNL1        0.0309
     48 H          10.3820    0.6513    0.0000 H       1  UNL1        0.0271
     49 H           9.5849    0.6513    0.0000 H       1  UNL1        0.0271
     50 H          11.5446   -2.1953    0.0000 H       1  UNL1        0.0268
     51 H          12.3331   -1.9376    0.0000 H       1  UNL1        0.0268
     52 H           8.9054    0.2589    0.0000 H       1  UNL1        0.0268
     53 H           8.5068   -0.4314    0.0000 H       1  UNL1        0.0268
     54 H          12.8401   -1.2384    0.0000 H       1  UNL1        0.0268
     55 H          12.8401   -0.4090    0.0000 H       1  UNL1        0.0268
     56 H          10.2175   -3.4456    0.0000 H       1  UNL1        0.0310
     57 H          10.6086   -2.7497    0.0000 H       1  UNL1        0.0310
     58 H          11.2746    0.7563    0.0000 H       1  UNL1        0.0301
     59 H          11.4695    0.6763    0.0000 H       1  UNL1        0.0235
     60 H          10.8495    1.2963    0.0000 H       1  UNL1        0.0235
     61 H          10.2295    0.6763    0.0000 H       1  UNL1        0.0235
     62 H           7.6888   -0.7998    0.0000 H       1  UNL1        0.0275
     63 H           6.8906   -0.7844    0.0000 H       1  UNL1        0.0275
     64 H           9.1038   -4.0130    0.0000 H       1  UNL1        0.0572
     65 H           8.8351   -0.8353    0.0000 H       1  UNL1        0.0238
     66 H           8.2199   -0.2106    0.0000 H       1  UNL1        0.0238
     67 H           7.5951   -0.8258    0.0000 H       1  UNL1        0.0238
     68 H           6.8666   -3.8978    0.0000 H       1  UNL1        0.0346
     69 H           7.6649   -3.8948    0.0000 H       1  UNL1        0.0346
     70 H           6.1281   -1.2091    0.0000 H       1  UNL1        0.0301
     71 H           5.7210   -1.8958    0.0000 H       1  UNL1        0.0301
     72 H          13.1054    0.5181    0.0000 H       1  UNL1        0.0268
     73 H          13.6987    1.0504    0.0000 H       1  UNL1        0.0268
     74 H           5.5907   -2.4501    0.0000 H       1  UNL1        0.0737
     75 H          11.9000    2.0899    0.0000 H       1  UNL1        0.0233
     76 H          11.0244    2.1373    0.0000 H       1  UNL1        0.0233
     77 H          10.9770    1.2618    0.0000 H       1  UNL1        0.0233
     78 H          13.3749    2.7080    0.0000 H       1  UNL1        0.0268
     79 H          12.7817    2.1756    0.0000 H       1  UNL1        0.0268
     80 H          14.1099    1.4866    0.0000 H       1  UNL1        0.0303
     81 H          14.8773    3.8344    0.0000 H       1  UNL1        0.0298
     82 H          14.5155    1.2226    0.0000 H       1  UNL1        0.0265
     83 H          15.2731    0.9750    0.0000 H       1  UNL1        0.0265
     84 H          14.4783    4.4034    0.0000 H       1  UNL1        0.0232
     85 H          13.6028    4.4508    0.0000 H       1  UNL1        0.0232
     86 H          13.5554    3.5753    0.0000 H       1  UNL1        0.0232
     87 H          15.7910    2.8446    0.0000 H       1  UNL1        0.0232
     88 H          16.2698    3.5791    0.0000 H       1  UNL1        0.0232
     89 H          15.5353    4.0579    0.0000 H       1  UNL1        0.0232
     90 H          16.1482    1.1498    0.0000 H       1  UNL1        0.0230
     91 H          16.6270    1.8843    0.0000 H       1  UNL1        0.0230
     92 H          15.8925    2.3631    0.0000 H       1  UNL1        0.0230
     93 H           3.7219   -3.9893    0.0000 H       1  UNL1        0.0689
     94 H           2.3221   -3.1739    0.0000 H       1  UNL1        0.0626
     95 H           4.2678   -1.6814    0.0000 H       1  UNL1        0.0661
     96 H           1.4619   -1.6706    0.0000 H       1  UNL1        0.0625
     97 H           1.4681   -0.0506    0.0000 H       1  UNL1        0.0655
     98 H           2.3399    1.4460    0.0000 H       1  UNL1        0.2923
     99 H           5.2277    1.1249    0.0000 H       1  UNL1        0.0660
    100 H           4.6101    1.7473    0.0000 H       1  UNL1        0.0660
    101 H           3.9877    1.1297    0.0000 H       1  UNL1        0.0660
@<TRIPOS>BOND
     1     1    25    1
     2     1    31    1
     3     2    31    2
     4     3    40    1
     5     3    43    1
     6     4    42    1
     7     4    98    1
     8     5     6    1
     9     5     9    1
    10     5    10    1
    11     5    17    1
    12     6     7    1
    13     6    12    1
    14     6    44    1
    15     7     8    1
    16     7    15    1
    17     7    45    1
    18     8    11    1
    19     8    13    1
    20     8    46    1
    21     9    14    1
    22     9    16    1
    23     9    47    1
    24    10    13    1
    25    10    48    1
    26    10    49    1
    27    11    18    1
    28    11    19    1
    29    11    21    1
    30    12    14    1
    31    12    50    1
    32    12    51    1
    33    13    52    1
    34    13    53    1
    35    14    54    1
    36    14    55    1
    37    15    20    1
    38    15    56    1
    39    15    57    1
    40    16    24    1
    41    16    26    1
    42    16    58    1
    43    17    59    1
    44    17    60    1
    45    17    61    1
    46    18    20    2
    47    18    22    1
    48    19    23    1
    49    19    62    1
    50    19    63    1
    51    20    64    1
    52    21    65    1
    53    21    66    1
    54    21    67    1
    55    22    25    1
    56    22    68    1
    57    22    69    1
    58    23    25    1
    59    23    70    1
    60    23    71    1
    61    24    27    1
    62    24    72    1
    63    24    73    1
    64    25    74    1
    65    26    75    1
    66    26    76    1
    67    26    77    1
    68    27    28    1
    69    27    78    1
    70    27    79    1
    71    28    29    1
    72    28    30    1
    73    28    80    1
    74    29    32    1
    75    29    33    1
    76    29    81    1
    77    30    34    1
    78    30    82    1
    79    30    83    1
    80    31    35    1
    81    32    87    1
    82    32    88    1
    83    32    89    1
    84    33    84    1
    85    33    85    1
    86    33    86    1
    87    34    90    1
    88    34    91    1
    89    34    92    1
    90    35    36    2
    91    35    93    1
    92    36    37    1
    93    36    94    1
    94    37    38   ar
    95    37    39   ar
    96    38    40   ar
    97    38    95    1
    98    39    41   ar
    99    39    96    1
   100    40    42   ar
   101    41    42   ar
   102    41    97    1
   103    43    99    1
   104    43   100    1
   105    43   101    1
