@<TRIPOS>MOLECULE
IMPHY001657
 38 40 0 0 0
SMALL
GASTEIGER

@<TRIPOS>ATOM
      1 O           5.8205   -2.8935    0.0000 O.2     1  UNL1       -0.2961
      2 C           2.5739    1.7704    0.0000 C.3     1  UNL1       -0.0202
      3 C           2.3886    2.5435    0.0000 C.3     1  UNL1       -0.0312
      4 C           2.0000    1.3503    0.0000 C.3     1  UNL1       -0.0312
      5 C           3.2246    1.6078    0.0000 C.3     1  UNL1       -0.0230
      6 C           4.0843    1.9331    0.0000 C.3     1  UNL1       -0.0346
      7 C           3.3827    2.6768    0.0000 C.3     1  UNL1       -0.0461
      8 C           3.3827    0.9719    0.0000 C.3     1  UNL1       -0.0461
      9 C           2.8211    2.8935    0.0000 C.3     1  UNL1       -0.0585
     10 C           4.0904    1.1074    0.0000 C.3     1  UNL1       -0.0434
     11 C           3.9331    2.5136    0.0000 C.3     1  UNL1       -0.0588
     12 C           4.0899    0.1073    0.0000 C.3     1  UNL1       -0.0336
     13 C           4.9557   -0.3931    0.0000 C.2     1  UNL1       -0.0780
     14 C           4.9552   -1.3931    0.0000 C.2     1  UNL1       -0.0152
     15 C           4.0890   -1.8926    0.0000 C.3     1  UNL1       -0.0370
     16 C           5.8210   -1.8935    0.0000 C.2     1  UNL1        0.1457
     17 H           1.4542    1.0561    0.0000 H       1  UNL1        0.0309
     18 H           1.9917    3.0198    0.0000 H       1  UNL1        0.0309
     19 H           4.7031    1.9720    0.0000 H       1  UNL1        0.0306
     20 H           3.1480    0.3981    0.0000 H       1  UNL1        0.0271
     21 H           3.9240    0.6696    0.0000 H       1  UNL1        0.0271
     22 H           3.9117    3.0001    0.0000 H       1  UNL1        0.0271
     23 H           3.1754    3.2611    0.0000 H       1  UNL1        0.0271
     24 H           3.4266    2.7602    0.0000 H       1  UNL1        0.0235
     25 H           2.9543    3.4990    0.0000 H       1  UNL1        0.0235
     26 H           2.2156    3.0267    0.0000 H       1  UNL1        0.0235
     27 H           4.7009    0.9994    0.0000 H       1  UNL1        0.0274
     28 H           4.3027    1.6899    0.0000 H       1  UNL1        0.0274
     29 H           4.4214    2.1317    0.0000 H       1  UNL1        0.0235
     30 H           4.3150    3.0020    0.0000 H       1  UNL1        0.0235
     31 H           3.4447    2.8956    0.0000 H       1  UNL1        0.0235
     32 H           3.4794    0.2153    0.0000 H       1  UNL1        0.0308
     33 H           3.8776   -0.4752    0.0000 H       1  UNL1        0.0308
     34 H           5.4928   -0.0833    0.0000 H       1  UNL1        0.0576
     35 H           3.7792   -1.3556    0.0000 H       1  UNL1        0.0278
     36 H           3.5519   -2.2024    0.0000 H       1  UNL1        0.0278
     37 H           4.3987   -2.4297    0.0000 H       1  UNL1        0.0278
     38 H           6.3581   -1.5837    0.0000 H       1  UNL1        0.1078
@<TRIPOS>BOND
     1     1    16    2
     2     2     3    1
     3     2     4    1
     4     2     5    1
     5     2     9    1
     6     3     4    1
     7     3     7    1
     8     3    18    1
     9     4     8    1
    10     4    17    1
    11     5     6    1
    12     5    10    1
    13     5    11    1
    14     6     7    1
    15     6     8    1
    16     6    19    1
    17     7    22    1
    18     7    23    1
    19     8    20    1
    20     8    21    1
    21     9    24    1
    22     9    25    1
    23     9    26    1
    24    10    12    1
    25    10    27    1
    26    10    28    1
    27    11    29    1
    28    11    30    1
    29    11    31    1
    30    12    13    1
    31    12    32    1
    32    12    33    1
    33    13    14    2
    34    13    34    1
    35    14    15    1
    36    14    16    1
    37    15    35    1
    38    15    36    1
    39    15    37    1
    40    16    38    1
