@<TRIPOS>MOLECULE
IMPHY016529
 34 35 0 0 0
SMALL
GASTEIGER

@<TRIPOS>ATOM
      1 C           3.9437   -0.8911    0.0000 C.3     1  UNL1       -0.0266
      2 C           4.2025    0.0748    0.0000 C.3     1  UNL1       -0.0379
      3 C           2.9659    0.9235    0.0000 C.3     1  UNL1       -0.0354
      4 C           2.5710   -1.4831    0.0000 C.3     1  UNL1       -0.0380
      5 C           3.8320    1.4235    0.0000 C.3     1  UNL1       -0.0379
      6 C           5.3427   -1.3999    0.0000 C.3     1  UNL1       -0.0469
      7 C           2.2290   -0.5434    0.0000 C.3     1  UNL1       -0.0469
      8 C           5.6015   -0.4340    0.0000 C.3     1  UNL1       -0.0494
      9 C           3.6849   -1.8570    0.0000 C.3     1  UNL1       -0.0591
     10 C           2.0000    1.1823    0.0000 C.3     1  UNL1       -0.0617
     11 C           2.1484   -2.3894    0.0000 C.3     1  UNL1       -0.0619
     12 C           4.0908    2.3894    0.0000 C.3     1  UNL1       -0.0619
     13 H           4.1885   -0.5450    0.0000 H       1  UNL1        0.0304
     14 H           2.8850    1.5382    0.0000 H       1  UNL1        0.0306
     15 H           3.0030   -1.9278    0.0000 H       1  UNL1        0.0304
     16 H           4.4520    1.4255    0.0000 H       1  UNL1        0.0304
     17 H           5.1477   -1.9885    0.0000 H       1  UNL1        0.0271
     18 H           5.9366   -1.5777    0.0000 H       1  UNL1        0.0271
     19 H           2.0347    0.0454    0.0000 H       1  UNL1        0.0271
     20 H           1.6432   -0.7466    0.0000 H       1  UNL1        0.0271
     21 H           6.1954   -0.6117    0.0000 H       1  UNL1        0.0268
     22 H           5.7964    0.1546    0.0000 H       1  UNL1        0.0268
     23 H           3.0860   -1.6965    0.0000 H       1  UNL1        0.0235
     24 H           3.5244   -2.4559    0.0000 H       1  UNL1        0.0235
     25 H           4.2838   -2.0175    0.0000 H       1  UNL1        0.0235
     26 H           2.1605    1.7812    0.0000 H       1  UNL1        0.0233
     27 H           1.4011    1.3428    0.0000 H       1  UNL1        0.0233
     28 H           1.8395    0.5834    0.0000 H       1  UNL1        0.0233
     29 H           1.5865   -2.1274    0.0000 H       1  UNL1        0.0233
     30 H           1.8864   -2.9513    0.0000 H       1  UNL1        0.0233
     31 H           2.7103   -2.6514    0.0000 H       1  UNL1        0.0233
     32 H           4.6896    2.2289    0.0000 H       1  UNL1        0.0233
     33 H           4.2512    2.9883    0.0000 H       1  UNL1        0.0233
     34 H           3.4919    2.5499    0.0000 H       1  UNL1        0.0233
@<TRIPOS>BOND
     1     1     3    1
     2     1     4    1
     3     1     6    1
     4     1     9    1
     5     2     5    1
     6     2     7    1
     7     2     8    1
     8     2    13    1
     9     3     5    1
    10     3    10    1
    11     3    14    1
    12     4     7    1
    13     4    11    1
    14     4    15    1
    15     5    12    1
    16     5    16    1
    17     6     8    1
    18     6    17    1
    19     6    18    1
    20     7    19    1
    21     7    20    1
    22     8    21    1
    23     8    22    1
    24     9    23    1
    25     9    24    1
    26     9    25    1
    27    10    26    1
    28    10    27    1
    29    10    28    1
    30    11    29    1
    31    11    30    1
    32    11    31    1
    33    12    32    1
    34    12    33    1
    35    12    34    1
