@<TRIPOS>MOLECULE
IMPHY016833
 19 18 0 0 0
SMALL
GASTEIGER

@<TRIPOS>ATOM
      1 S           4.5981    0.2500    0.0000 S.3     1  UNL1       -0.0811
      2 S           5.4641   -0.2500    0.0000 S.3     1  UNL1       -0.0121
      3 S           6.3301    0.2500    0.0000 S.3     1  UNL1       -0.0016
      4 S           8.0622    0.2500    0.0000 S.3     1  UNL1       -0.0844
      5 S           7.1962   -0.2500    0.0000 S.3     1  UNL1       -0.0124
      6 C           2.8660    0.2500    0.0000 C.3     1  UNL1       -0.0460
      7 C           3.7320   -0.2500    0.0000 C.3     1  UNL1        0.0045
      8 C           2.0000   -0.2500    0.0000 C.3     1  UNL1       -0.0645
      9 C           8.9282   -0.2500    0.0000 C.3     1  UNL1       -0.0070
     10 H           3.2646    0.7249    0.0000 H       1  UNL1        0.0271
     11 H           2.4675    0.7249    0.0000 H       1  UNL1        0.0271
     12 H           3.3335   -0.7249    0.0000 H       1  UNL1        0.0385
     13 H           4.1306   -0.7249    0.0000 H       1  UNL1        0.0385
     14 H           1.6900    0.2869    0.0000 H       1  UNL1        0.0230
     15 H           1.4631   -0.5600    0.0000 H       1  UNL1        0.0230
     16 H           2.3100   -0.7869    0.0000 H       1  UNL1        0.0230
     17 H           8.6182   -0.7869    0.0000 H       1  UNL1        0.0349
     18 H           9.4651   -0.5600    0.0000 H       1  UNL1        0.0349
     19 H           9.2382    0.2869    0.0000 H       1  UNL1        0.0349
@<TRIPOS>BOND
     1     1     2    1
     2     1     7    1
     3     2     3    1
     4     3     5    1
     5     4     5    1
     6     4     9    1
     7     6     7    1
     8     6     8    1
     9     6    10    1
    10     6    11    1
    11     7    12    1
    12     7    13    1
    13     8    14    1
    14     8    15    1
    15     8    16    1
    16     9    17    1
    17     9    18    1
    18     9    19    1
