@<TRIPOS>MOLECULE
IMPHY016213
 9 9 0 0 0
SMALL
GASTEIGER

@<TRIPOS>ATOM
      1 N           2.8090   -0.4594    0.0000 N.pl3   1  UNL1       -0.3191
      2 C           3.6180    0.1284    0.0000 C.2     1  UNL1       -0.0061
      3 C           3.3090    1.0794    0.0000 C.2     1  UNL1       -0.0461
      4 C           2.3090    1.0794    0.0000 C.2     1  UNL1       -0.0376
      5 C           2.0000    0.1284    0.0000 C.2     1  UNL1        0.0524
      6 H           4.2077   -0.0632    0.0000 H       1  UNL1        0.0781
      7 H           3.6734    1.5810    0.0000 H       1  UNL1        0.0631
      8 H           2.8090   -1.0794    0.0000 H       1  UNL1        0.1517
      9 H           1.9446    1.5810    0.0000 H       1  UNL1        0.0637
@<TRIPOS>BOND
     1     1     2    1
     2     1     5    1
     3     1     8    1
     4     2     3    2
     5     2     6    1
     6     3     4    1
     7     3     7    1
     8     4     5    2
     9     4     9    1
