@<TRIPOS>MOLECULE
IMPHY008320
 63 66 0 0 0
SMALL
GASTEIGER

@<TRIPOS>ATOM
      1 O           8.1223   -2.5159    0.0000 O.3     1  UNL1       -0.4608
      2 O           5.5103    1.0125    0.0000 O.3     1  UNL1       -0.3877
      3 O           8.6855    1.3935    0.0000 O.3     1  UNL1       -0.3848
      4 O           7.2762    2.0503    0.0000 O.3     1  UNL1       -0.4560
      5 O           4.6497    0.5156    0.0000 O.2     1  UNL1       -0.2882
      6 O           2.8680   -0.4948    0.0000 O.2     1  UNL1       -0.4919
      7 O           9.8438   -2.5487    0.0000 O.2     1  UNL1       -0.2508
      8 O           9.0082    2.0569    0.0000 O.2     1  UNL1       -0.2512
      9 C           7.2641   -1.0190    0.0000 C.3     1  UNL1        0.0172
     10 C           6.3981   -0.5190    0.0000 C.3     1  UNL1        0.0105
     11 C           5.5320   -1.0190    0.0000 C.3     1  UNL1        0.0432
     12 C           8.1741   -0.5121    0.0000 C.3     1  UNL1        0.0103
     13 C           7.2641   -2.0190    0.0000 C.3     1  UNL1        0.1094
     14 C           5.5320   -2.0190    0.0000 C.3     1  UNL1       -0.0186
     15 C           6.3820    0.5225    0.0000 C.3     1  UNL1        0.0991
     16 C           8.1821    0.5295    0.0000 C.3     1  UNL1        0.1064
     17 C           6.3981   -2.5190    0.0000 C.3     1  UNL1       -0.0109
     18 C           7.2800    1.0503    0.0000 C.3     1  UNL1        0.1575
     19 C           7.2641   -0.0190    0.0000 C.3     1  UNL1       -0.0555
     20 C           9.0134   -1.0404    0.0000 C.3     1  UNL1        0.0511
     21 C           4.6381   -2.5537    0.0000 C.3     1  UNL1       -0.0181
     22 C           5.5320   -0.0190    0.0000 C.3     1  UNL1       -0.0517
     23 C           4.6381   -0.4843    0.0000 C.2     1  UNL1        0.2034
     24 C           9.1821    0.5256    0.0000 C.3     1  UNL1       -0.0322
     25 C           8.9878   -2.0318    0.0000 C.2     1  UNL1        0.3077
     26 C           3.7320   -2.0398    0.0000 C.2     1  UNL1       -0.0356
     27 C           3.7320   -0.9982    0.0000 C.2     1  UNL1        0.1592
     28 C           4.6497   -3.5536    0.0000 C.3     1  UNL1       -0.0585
     29 C           8.1403    2.5536    0.0000 C.2     1  UNL1        0.3044
     30 C           8.1364    3.5536    0.0000 C.3     1  UNL1        0.0332
     31 C           2.0000   -0.9915    0.0000 C.3     1  UNL1        0.0789
     32 H           5.6587   -0.0997    0.0000 H       1  UNL1        0.0343
     33 H           8.9198   -0.1041    0.0000 H       1  UNL1        0.0341
     34 H           7.2636   -2.8690    0.0000 H       1  UNL1        0.0739
     35 H           5.5386   -2.8690    0.0000 H       1  UNL1        0.0317
     36 H           5.8493    0.2053    0.0000 H       1  UNL1        0.0634
     37 H           5.9995   -2.9939    0.0000 H       1  UNL1        0.0304
     38 H           6.7966   -2.9939    0.0000 H       1  UNL1        0.0304
     39 H           6.7413    1.3572    0.0000 H       1  UNL1        0.0789
     40 H           7.8841   -0.0190    0.0000 H       1  UNL1        0.0236
     41 H           7.2641    0.6010    0.0000 H       1  UNL1        0.0236
     42 H           6.6441   -0.0190    0.0000 H       1  UNL1        0.0236
     43 H           9.6205   -1.1663    0.0000 H       1  UNL1        0.0381
     44 H           9.2452   -0.4653    0.0000 H       1  UNL1        0.0381
     45 H           4.1042   -2.8688    0.0000 H       1  UNL1        0.0344
     46 H           6.1520   -0.0190    0.0000 H       1  UNL1        0.0239
     47 H           5.5320    0.6010    0.0000 H       1  UNL1        0.0239
     48 H           4.9120   -0.0190    0.0000 H       1  UNL1        0.0239
     49 H           9.1797   -0.0944    0.0000 H       1  UNL1        0.0259
     50 H           9.8021    0.5232    0.0000 H       1  UNL1        0.0259
     51 H           9.1845    1.1456    0.0000 H       1  UNL1        0.0259
     52 H           3.1963   -2.3519    0.0000 H       1  UNL1        0.0612
     53 H           5.5031    1.6324    0.0000 H       1  UNL1        0.2100
     54 H           9.3055    1.3912    0.0000 H       1  UNL1        0.2103
     55 H           4.0297   -3.5608    0.0000 H       1  UNL1        0.0235
     56 H           4.6568   -4.1736    0.0000 H       1  UNL1        0.0235
     57 H           5.2696   -3.5464    0.0000 H       1  UNL1        0.0235
     58 H           8.7564    3.5560    0.0000 H       1  UNL1        0.0342
     59 H           8.1340    4.1736    0.0000 H       1  UNL1        0.0342
     60 H           7.5164    3.5512    0.0000 H       1  UNL1        0.0342
     61 H           1.6921   -0.4534    0.0000 H       1  UNL1        0.0660
     62 H           1.4619   -1.2994    0.0000 H       1  UNL1        0.0660
     63 H           2.3079   -1.5296    0.0000 H       1  UNL1        0.0660
@<TRIPOS>BOND
     1     1    13    1
     2     1    25    1
     3    15     2    1
     4     2    53    1
     5    16     3    1
     6     3    54    1
     7    18     4    1
     8     4    29    1
     9     5    23    2
    10     6    27    1
    11     6    31    1
    12     7    25    2
    13     8    29    2
    14     9    10    1
    15     9    12    1
    16     9    13    1
    17     9    19    1
    18    10    11    1
    19    10    15    1
    20    10    32    1
    21    11    14    1
    22    11    22    1
    23    11    23    1
    24    12    16    1
    25    12    20    1
    26    12    33    1
    27    13    17    1
    28    13    34    1
    29    14    17    1
    30    14    21    1
    31    14    35    1
    32    15    18    1
    33    15    36    1
    34    16    18    1
    35    16    24    1
    36    17    37    1
    37    17    38    1
    38    18    39    1
    39    19    40    1
    40    19    41    1
    41    19    42    1
    42    20    25    1
    43    20    43    1
    44    20    44    1
    45    21    26    1
    46    21    28    1
    47    21    45    1
    48    22    46    1
    49    22    47    1
    50    22    48    1
    51    23    27    1
    52    24    49    1
    53    24    50    1
    54    24    51    1
    55    26    27    2
    56    26    52    1
    57    28    55    1
    58    28    56    1
    59    28    57    1
    60    29    30    1
    61    30    58    1
    62    30    59    1
    63    30    60    1
    64    31    61    1
    65    31    62    1
    66    31    63    1
