@<TRIPOS>MOLECULE
IMPHY013748
 17 18 0 0 0
SMALL
GASTEIGER

@<TRIPOS>ATOM
      1 C           3.7320    0.5000    0.0000 C.ar    1  UNL1       -0.0365
      2 C           4.6783    0.8047    0.0000 C.3     1  UNL1       -0.0086
      3 C           3.7320   -0.5000    0.0000 C.ar    1  UNL1       -0.0218
      4 C           5.2619   -0.0000    0.0000 C.2     1  UNL1       -0.0791
      5 C           4.6783   -0.8047    0.0000 C.2     1  UNL1       -0.0579
      6 C           2.8660    1.0000    0.0000 C.ar    1  UNL1       -0.0577
      7 C           2.8660   -1.0000    0.0000 C.ar    1  UNL1       -0.0543
      8 C           2.0000    0.5000    0.0000 C.ar    1  UNL1       -0.0615
      9 C           2.0000   -0.5000    0.0000 C.ar    1  UNL1       -0.0612
     10 H           5.2156    1.1140    0.0000 H       1  UNL1        0.0356
     11 H           4.4272    1.3716    0.0000 H       1  UNL1        0.0356
     12 H           5.8819   -0.0000    0.0000 H       1  UNL1        0.0575
     13 H           4.8709   -1.3940    0.0000 H       1  UNL1        0.0621
     14 H           2.8660    1.6200    0.0000 H       1  UNL1        0.0621
     15 H           2.8660   -1.6200    0.0000 H       1  UNL1        0.0624
     16 H           1.4631    0.8100    0.0000 H       1  UNL1        0.0618
     17 H           1.4631   -0.8100    0.0000 H       1  UNL1        0.0618
@<TRIPOS>BOND
     1     1     2    1
     2     1     3   ar
     3     1     6   ar
     4     2     4    1
     5     2    10    1
     6     2    11    1
     7     3     5    1
     8     3     7   ar
     9     4     5    2
    10     4    12    1
    11     5    13    1
    12     6     8   ar
    13     6    14    1
    14     7     9   ar
    15     7    15    1
    16     8     9   ar
    17     8    16    1
    18     9    17    1
