@<TRIPOS>MOLECULE
IMPHY009471
 29 29 0 0 0
SMALL
GASTEIGER

@<TRIPOS>ATOM
      1 O           3.7320    1.8450    0.0000 O.3     1  UNL1       -0.3888
      2 C           3.7320   -0.1550    0.0000 C.3     1  UNL1       -0.0087
      3 C           3.7320    0.8450    0.0000 C.3     1  UNL1        0.0636
      4 C           4.5981   -0.6550    0.0000 C.3     1  UNL1       -0.0439
      5 C           2.8660   -0.6550    0.0000 C.3     1  UNL1       -0.0266
      6 C           4.5981   -1.6550    0.0000 C.3     1  UNL1       -0.0342
      7 C           2.8660   -1.6550    0.0000 C.2     1  UNL1       -0.0762
      8 C           4.7320    0.8450    0.0000 C.3     1  UNL1       -0.0361
      9 C           2.7320    0.8450    0.0000 C.3     1  UNL1       -0.0361
     10 C           3.7320   -2.1550    0.0000 C.2     1  UNL1       -0.0850
     11 C           2.0000   -2.1550    0.0000 C.3     1  UNL1       -0.0438
     12 H           4.2690    0.1550    0.0000 H       1  UNL1        0.0331
     13 H           5.2087   -0.7627    0.0000 H       1  UNL1        0.0272
     14 H           4.8101   -0.0724    0.0000 H       1  UNL1        0.0272
     15 H           2.6540   -0.0724    0.0000 H       1  UNL1        0.0313
     16 H           2.2554   -0.7627    0.0000 H       1  UNL1        0.0313
     17 H           4.8101   -2.2376    0.0000 H       1  UNL1        0.0307
     18 H           5.2087   -1.5473    0.0000 H       1  UNL1        0.0307
     19 H           4.7320    0.2250    0.0000 H       1  UNL1        0.0257
     20 H           5.3520    0.8450    0.0000 H       1  UNL1        0.0257
     21 H           4.7320    1.4650    0.0000 H       1  UNL1        0.0257
     22 H           2.7320    1.4650    0.0000 H       1  UNL1        0.0257
     23 H           2.1120    0.8450    0.0000 H       1  UNL1        0.0257
     24 H           2.7320    0.2250    0.0000 H       1  UNL1        0.0257
     25 H           3.7320   -2.7750    0.0000 H       1  UNL1        0.0572
     26 H           4.2690    2.1550    0.0000 H       1  UNL1        0.2101
     27 H           1.6900   -1.6181    0.0000 H       1  UNL1        0.0274
     28 H           1.4631   -2.4650    0.0000 H       1  UNL1        0.0274
     29 H           2.3100   -2.6919    0.0000 H       1  UNL1        0.0274
@<TRIPOS>BOND
     1     1     3    1
     2     1    26    1
     3     2     3    1
     4     2     4    1
     5     2     5    1
     6     2    12    1
     7     3     8    1
     8     3     9    1
     9     4     6    1
    10     4    13    1
    11     4    14    1
    12     5     7    1
    13     5    15    1
    14     5    16    1
    15     6    10    1
    16     6    17    1
    17     6    18    1
    18     7    10    2
    19     7    11    1
    20     8    19    1
    21     8    20    1
    22     8    21    1
    23     9    22    1
    24     9    23    1
    25     9    24    1
    26    10    25    1
    27    11    27    1
    28    11    28    1
    29    11    29    1
