@<TRIPOS>MOLECULE
IMPHY009140
 199 210 0 0 0
SMALL
GASTEIGER

@<TRIPOS>ATOM
      1 O          17.8164   10.0403    0.0000 O.3     1  UNL1       -0.3448
      2 O          16.0440   10.9351    0.0000 O.3     1  UNL1       -0.3480
      3 O          16.3933    1.7962    0.0000 O.3     1  UNL1       -0.3454
      4 O          14.6613    1.7962    0.0000 O.3     1  UNL1       -0.3405
      5 O          16.3933   -0.2037    0.0000 O.3     1  UNL1       -0.3841
      6 O          14.6613   -1.2038    0.0000 O.3     1  UNL1       -0.3864
      7 O          12.9292   -0.2037    0.0000 O.3     1  UNL1       -0.3401
      8 O          12.9292    2.7962    0.0000 O.3     1  UNL1       -0.3924
      9 O          12.0632    1.2962    0.0000 O.3     1  UNL1       -0.3405
     10 O          11.1972   -1.2038    0.0000 O.3     1  UNL1       -0.3378
     11 O           9.4651   -0.2037    0.0000 O.3     1  UNL1       -0.3864
     12 O           9.4651    1.7962    0.0000 O.3     1  UNL1       -0.3865
     13 O           9.4651   -1.2038    0.0000 O.3     1  UNL1       -0.3405
     14 O          10.3312    3.2962    0.0000 O.3     1  UNL1       -0.3924
     15 O          11.1972   -3.2038    0.0000 O.3     1  UNL1       -0.3841
     16 O           9.4651   -4.2038    0.0000 O.3     1  UNL1       -0.3401
     17 O           7.7331   -3.2038    0.0000 O.3     1  UNL1       -0.3865
     18 O           6.8671   -1.7038    0.0000 O.3     1  UNL1       -0.3924
     19 O           7.7331   -4.2038    0.0000 O.3     1  UNL1       -0.3405
     20 O           9.4651   -6.2038    0.0000 O.3     1  UNL1       -0.3841
     21 O           7.7331   -7.2038    0.0000 O.3     1  UNL1       -0.3401
     22 O           6.0010   -6.2038    0.0000 O.3     1  UNL1       -0.3865
     23 O           6.0010   -7.2038    0.0000 O.3     1  UNL1       -0.3405
     24 O           5.1350   -4.7038    0.0000 O.3     1  UNL1       -0.3924
     25 O           4.2690   -9.2038    0.0000 O.3     1  UNL1       -0.3401
     26 O           7.7331   -9.2038    0.0000 O.3     1  UNL1       -0.3841
     27 O           6.0010  -10.2037    0.0000 O.3     1  UNL1       -0.3864
     28 O           5.1350  -10.7037    0.0000 O.3     1  UNL1       -0.3431
     29 O           3.4030   -7.7038    0.0000 O.3     1  UNL1       -0.3924
     30 O           2.5369  -10.2037    0.0000 O.3     1  UNL1       -0.3841
     31 O           2.5369  -12.2037    0.0000 O.3     1  UNL1       -0.3864
     32 O           4.2690  -13.2037    0.0000 O.3     1  UNL1       -0.3866
     33 C          16.4226    7.9931    0.0000 C.3     1  UNL1       -0.0233
     34 C          17.2905    7.4965    0.0000 C.3     1  UNL1       -0.0298
     35 C          17.2944    6.4965    0.0000 C.3     1  UNL1       -0.0343
     36 C          16.6281    8.9657    0.0000 C.3     1  UNL1       -0.0015
     37 C          16.4303    5.9931    0.0000 C.3     1  UNL1       -0.0323
     38 C          17.6164    9.0726    0.0000 C.3     1  UNL1        0.0660
     39 C          16.4183    4.9516    0.0000 C.3     1  UNL1       -0.0260
     40 C          18.0250    8.1664    0.0000 C.3     1  UNL1       -0.0226
     41 C          15.5585    7.4898    0.0000 C.3     1  UNL1       -0.0467
     42 C          15.5624    6.4898    0.0000 C.3     1  UNL1       -0.0489
     43 C          16.2258    9.8683    0.0000 C.3     1  UNL1        0.0160
     44 C          17.3183    4.4273    0.0000 C.3     1  UNL1       -0.0330
     45 C          18.2064    5.9931    0.0000 C.3     1  UNL1       -0.0494
     46 C          16.9587   10.5311    0.0000 C.3     1  UNL1        0.1732
     47 C          18.2184    4.9516    0.0000 C.3     1  UNL1       -0.0494
     48 C          15.5547    8.4898    0.0000 C.3     1  UNL1       -0.0590
     49 C          15.4684    4.4273    0.0000 C.3     1  UNL1       -0.0448
     50 C          17.3309    3.3424    0.0000 C.3     1  UNL1       -0.0232
     51 C          15.5542    5.4549    0.0000 C.3     1  UNL1       -0.0590
     52 C          15.4558    3.3424    0.0000 C.3     1  UNL1       -0.0260
     53 C          15.2474   10.0750    0.0000 C.3     1  UNL1       -0.0572
     54 C          16.3933    2.7962    0.0000 C.3     1  UNL1        0.0621
     55 C          17.7660   11.1213    0.0000 C.3     1  UNL1        0.0020
     56 C          17.6585   12.1155    0.0000 C.3     1  UNL1       -0.0435
     57 C          15.9365   11.9293    0.0000 C.3     1  UNL1        0.0535
     58 C          16.7437   12.5195    0.0000 C.3     1  UNL1       -0.0201
     59 C          16.6362   13.5137    0.0000 C.3     1  UNL1       -0.0603
     60 C          15.5273    1.2962    0.0000 C.3     1  UNL1        0.1882
     61 C          15.5273    0.2963    0.0000 C.3     1  UNL1        0.1341
     62 C          14.6613   -0.2037    0.0000 C.3     1  UNL1        0.1144
     63 C          13.7953    1.2962    0.0000 C.3     1  UNL1        0.1134
     64 C          13.7953    0.2963    0.0000 C.3     1  UNL1        0.1184
     65 C          12.9292    1.7962    0.0000 C.3     1  UNL1        0.0730
     66 C          12.0632    0.2963    0.0000 C.3     1  UNL1        0.1888
     67 C          11.1972   -0.2037    0.0000 C.3     1  UNL1        0.1406
     68 C          10.3312    0.2963    0.0000 C.3     1  UNL1        0.1144
     69 C          11.1972    1.7962    0.0000 C.3     1  UNL1        0.1130
     70 C          10.3312    1.2962    0.0000 C.3     1  UNL1        0.1119
     71 C          11.1972    2.7962    0.0000 C.3     1  UNL1        0.0730
     72 C          10.3312   -1.7038    0.0000 C.3     1  UNL1        0.1886
     73 C          10.3312   -2.7038    0.0000 C.3     1  UNL1        0.1345
     74 C           9.4651   -3.2038    0.0000 C.3     1  UNL1        0.1206
     75 C           8.5991   -1.7038    0.0000 C.3     1  UNL1        0.1130
     76 C           8.5991   -2.7038    0.0000 C.3     1  UNL1        0.1123
     77 C           7.7331   -1.2038    0.0000 C.3     1  UNL1        0.0730
     78 C           8.5991   -4.7038    0.0000 C.3     1  UNL1        0.1884
     79 C           8.5991   -5.7038    0.0000 C.3     1  UNL1        0.1345
     80 C           7.7331   -6.2038    0.0000 C.3     1  UNL1        0.1206
     81 C           6.8671   -4.7038    0.0000 C.3     1  UNL1        0.1130
     82 C           6.8671   -5.7038    0.0000 C.3     1  UNL1        0.1123
     83 C           6.0010   -4.2038    0.0000 C.3     1  UNL1        0.0730
     84 C           6.8671   -7.7038    0.0000 C.3     1  UNL1        0.1884
     85 C           6.8671   -8.7038    0.0000 C.3     1  UNL1        0.1341
     86 C           6.0010   -9.2038    0.0000 C.3     1  UNL1        0.1144
     87 C           5.1350   -8.7038    0.0000 C.3     1  UNL1        0.1184
     88 C           5.1350   -7.7038    0.0000 C.3     1  UNL1        0.1134
     89 C           4.2690   -7.2038    0.0000 C.3     1  UNL1        0.0730
     90 C           4.2690  -10.2037    0.0000 C.3     1  UNL1        0.1883
     91 C           3.4030  -10.7037    0.0000 C.3     1  UNL1        0.1341
     92 C           3.4030  -11.7037    0.0000 C.3     1  UNL1        0.1140
     93 C           4.2690  -12.2037    0.0000 C.3     1  UNL1        0.1095
     94 C           5.1350  -11.7037    0.0000 C.3     1  UNL1        0.0873
     95 C           6.0010  -12.2037    0.0000 C.3     1  UNL1       -0.0361
     96 H          18.0688    7.1548    0.0000 H       1  UNL1        0.0310
     97 H          18.0256    6.9300    0.0000 H       1  UNL1        0.0306
     98 H          15.7828    8.8762    0.0000 H       1  UNL1        0.0335
     99 H          17.1648    5.5653    0.0000 H       1  UNL1        0.0309
    100 H          18.4613    9.1658    0.0000 H       1  UNL1        0.0600
    101 H          18.3924    7.6670    0.0000 H       1  UNL1        0.0293
    102 H          18.5603    8.4792    0.0000 H       1  UNL1        0.0293
    103 H          15.3442    8.0716    0.0000 H       1  UNL1        0.0271
    104 H          14.9483    7.3798    0.0000 H       1  UNL1        0.0271
    105 H          14.9514    6.5951    0.0000 H       1  UNL1        0.0268
    106 H          15.3526    5.9064    0.0000 H       1  UNL1        0.0268
    107 H          16.0643   10.4669    0.0000 H       1  UNL1        0.0354
    108 H          18.0577    4.0080    0.0000 H       1  UNL1        0.0307
    109 H          18.8184    5.8941    0.0000 H       1  UNL1        0.0268
    110 H          18.4086    6.5792    0.0000 H       1  UNL1        0.0268
    111 H          18.4342    4.3703    0.0000 H       1  UNL1        0.0268
    112 H          18.8280    5.0647    0.0000 H       1  UNL1        0.0268
    113 H          15.8626    9.0279    0.0000 H       1  UNL1        0.0235
    114 H          15.0165    8.7977    0.0000 H       1  UNL1        0.0235
    115 H          15.2467    7.9517    0.0000 H       1  UNL1        0.0235
    116 H          15.2661    5.0134    0.0000 H       1  UNL1        0.0271
    117 H          14.8563    4.3283    0.0000 H       1  UNL1        0.0271
    118 H          17.5467    2.7611    0.0000 H       1  UNL1        0.0293
    119 H          17.9405    3.4555    0.0000 H       1  UNL1        0.0293
    120 H          15.8662    5.9906    0.0000 H       1  UNL1        0.0235
    121 H          15.0184    5.7670    0.0000 H       1  UNL1        0.0235
    122 H          15.2421    4.9192    0.0000 H       1  UNL1        0.0235
    123 H          14.8462    3.4555    0.0000 H       1  UNL1        0.0290
    124 H          15.2400    2.7611    0.0000 H       1  UNL1        0.0290
    125 H          15.3755   10.6816    0.0000 H       1  UNL1        0.0234
    126 H          14.6407   10.2032    0.0000 H       1  UNL1        0.0234
    127 H          15.1192    9.4684    0.0000 H       1  UNL1        0.0234
    128 H          16.9309    2.4873    0.0000 H       1  UNL1        0.0597
    129 H          18.0394   10.5649    0.0000 H       1  UNL1        0.0317
    130 H          18.3615   11.2940    0.0000 H       1  UNL1        0.0317
    131 H          18.2771   12.0741    0.0000 H       1  UNL1        0.0270
    132 H          17.8067   12.7176    0.0000 H       1  UNL1        0.0270
    133 H          15.6630   12.4858    0.0000 H       1  UNL1        0.0563
    134 H          15.3410   11.7567    0.0000 H       1  UNL1        0.0563
    135 H          17.2442   12.8855    0.0000 H       1  UNL1        0.0320
    136 H          17.2526   13.5804    0.0000 H       1  UNL1        0.0233
    137 H          16.5696   14.1302    0.0000 H       1  UNL1        0.0233
    138 H          16.0198   13.4471    0.0000 H       1  UNL1        0.0233
    139 H          15.5273    1.9162    0.0000 H       1  UNL1        0.0937
    140 H          15.5273   -0.3237    0.0000 H       1  UNL1        0.0671
    141 H          14.1244   -0.5137    0.0000 H       1  UNL1        0.0648
    142 H          13.7953    1.9162    0.0000 H       1  UNL1        0.0647
    143 H          13.2583    0.6063    0.0000 H       1  UNL1        0.0651
    144 H          16.9303    0.1063    0.0000 H       1  UNL1        0.2101
    145 H          12.3187    1.9039    0.0000 H       1  UNL1        0.0584
    146 H          12.7172    1.2136    0.0000 H       1  UNL1        0.0584
    147 H          15.1982   -1.5138    0.0000 H       1  UNL1        0.2100
    148 H          12.0632   -0.3237    0.0000 H       1  UNL1        0.0938
    149 H          12.3923    3.1062    0.0000 H       1  UNL1        0.2095
    150 H          10.6603   -0.5137    0.0000 H       1  UNL1        0.0675
    151 H           9.7942    0.6063    0.0000 H       1  UNL1        0.0648
    152 H          11.7341    2.1062    0.0000 H       1  UNL1        0.0647
    153 H          10.3312    1.9162    0.0000 H       1  UNL1        0.0647
    154 H          11.8078    2.6886    0.0000 H       1  UNL1        0.0584
    155 H          11.4092    3.3789    0.0000 H       1  UNL1        0.0584
    156 H          10.8681   -2.0138    0.0000 H       1  UNL1        0.0938
    157 H           8.9282    0.1063    0.0000 H       1  UNL1        0.2100
    158 H           8.9282    1.4862    0.0000 H       1  UNL1        0.2100
    159 H          10.3312   -3.3238    0.0000 H       1  UNL1        0.0671
    160 H          10.3312    3.9162    0.0000 H       1  UNL1        0.2095
    161 H           8.9282   -3.5138    0.0000 H       1  UNL1        0.0651
    162 H           8.5991   -1.0838    0.0000 H       1  UNL1        0.0647
    163 H           8.0622   -2.3938    0.0000 H       1  UNL1        0.0647
    164 H          11.1972   -3.8238    0.0000 H       1  UNL1        0.2101
    165 H           8.1316   -0.7288    0.0000 H       1  UNL1        0.0584
    166 H           7.3346   -0.7288    0.0000 H       1  UNL1        0.0584
    167 H           7.1962   -2.8938    0.0000 H       1  UNL1        0.2100
    168 H           9.1360   -5.0138    0.0000 H       1  UNL1        0.0938
    169 H           8.5991   -6.3238    0.0000 H       1  UNL1        0.0671
    170 H           6.3301   -1.3938    0.0000 H       1  UNL1        0.2095
    171 H           7.1962   -6.5138    0.0000 H       1  UNL1        0.0651
    172 H           6.8671   -4.0838    0.0000 H       1  UNL1        0.0647
    173 H           6.3301   -5.3938    0.0000 H       1  UNL1        0.0647
    174 H           9.4651   -6.8238    0.0000 H       1  UNL1        0.2101
    175 H           6.3996   -3.7288    0.0000 H       1  UNL1        0.0584
    176 H           5.6025   -3.7288    0.0000 H       1  UNL1        0.0584
    177 H           6.8671   -7.0838    0.0000 H       1  UNL1        0.0938
    178 H           5.4641   -5.8938    0.0000 H       1  UNL1        0.2100
    179 H           6.8671   -9.3238    0.0000 H       1  UNL1        0.0671
    180 H           5.4641   -9.5138    0.0000 H       1  UNL1        0.0648
    181 H           4.5981   -8.3938    0.0000 H       1  UNL1        0.0651
    182 H           5.1350   -7.0838    0.0000 H       1  UNL1        0.0647
    183 H           4.5981   -4.3938    0.0000 H       1  UNL1        0.2095
    184 H           4.6675   -6.7288    0.0000 H       1  UNL1        0.0584
    185 H           3.8705   -6.7288    0.0000 H       1  UNL1        0.0584
    186 H           3.7320   -9.8938    0.0000 H       1  UNL1        0.0938
    187 H           8.2700   -8.8938    0.0000 H       1  UNL1        0.2101
    188 H           3.9650  -10.0837    0.0000 H       1  UNL1        0.0671
    189 H           6.5380  -10.5137    0.0000 H       1  UNL1        0.2100
    190 H           3.4030  -12.3237    0.0000 H       1  UNL1        0.0648
    191 H           4.8059  -12.5137    0.0000 H       1  UNL1        0.0646
    192 H           5.6720  -11.3937    0.0000 H       1  UNL1        0.0621
    193 H           2.8660   -7.3938    0.0000 H       1  UNL1        0.2095
    194 H           5.6910  -12.7407    0.0000 H       1  UNL1        0.0255
    195 H           6.5380  -12.5137    0.0000 H       1  UNL1        0.0255
    196 H           6.3110  -11.6668    0.0000 H       1  UNL1        0.0255
    197 H           2.0000  -10.5137    0.0000 H       1  UNL1        0.2101
    198 H           2.5369  -12.8237    0.0000 H       1  UNL1        0.2100
    199 H           4.8059  -13.5137    0.0000 H       1  UNL1        0.2100
@<TRIPOS>BOND
     1     1    38    1
     2    46     1    1
     3     2    46    1
     4     2    57    1
     5    54     3    1
     6    60     3    1
     7     4    60    1
     8     4    63    1
     9    61     5    1
    10     5   144    1
    11    62     6    1
    12     6   147    1
    13    64     7    1
    14    66     7    1
    15     8    65    1
    16     8   149    1
    17     9    66    1
    18     9    69    1
    19    67    10    1
    20    72    10    1
    21    68    11    1
    22    11   157    1
    23    70    12    1
    24    12   158    1
    25    13    72    1
    26    13    75    1
    27    14    71    1
    28    14   160    1
    29    73    15    1
    30    15   164    1
    31    74    16    1
    32    78    16    1
    33    76    17    1
    34    17   167    1
    35    18    77    1
    36    18   170    1
    37    19    78    1
    38    19    81    1
    39    79    20    1
    40    20   174    1
    41    80    21    1
    42    84    21    1
    43    82    22    1
    44    22   178    1
    45    23    84    1
    46    23    88    1
    47    24    83    1
    48    24   183    1
    49    87    25    1
    50    90    25    1
    51    85    26    1
    52    26   187    1
    53    86    27    1
    54    27   189    1
    55    28    90    1
    56    28    94    1
    57    29    89    1
    58    29   193    1
    59    91    30    1
    60    30   197    1
    61    92    31    1
    62    31   198    1
    63    93    32    1
    64    32   199    1
    65    33    34    1
    66    33    36    1
    67    33    41    1
    68    33    48    1
    69    34    35    1
    70    34    40    1
    71    34    96    1
    72    35    37    1
    73    35    45    1
    74    35    97    1
    75    36    38    1
    76    36    43    1
    77    36    98    1
    78    37    39    1
    79    37    42    1
    80    37    99    1
    81    38    40    1
    82    38   100    1
    83    39    44    1
    84    39    49    1
    85    39    51    1
    86    40   101    1
    87    40   102    1
    88    41    42    1
    89    41   103    1
    90    41   104    1
    91    42   105    1
    92    42   106    1
    93    43    46    1
    94    43    53    1
    95    43   107    1
    96    44    47    1
    97    44    50    1
    98    44   108    1
    99    45    47    1
   100    45   109    1
   101    45   110    1
   102    46    55    1
   103    47   111    1
   104    47   112    1
   105    48   113    1
   106    48   114    1
   107    48   115    1
   108    49    52    1
   109    49   116    1
   110    49   117    1
   111    50    54    1
   112    50   118    1
   113    50   119    1
   114    51   120    1
   115    51   121    1
   116    51   122    1
   117    52    54    1
   118    52   123    1
   119    52   124    1
   120    53   125    1
   121    53   126    1
   122    53   127    1
   123    54   128    1
   124    55    56    1
   125    55   129    1
   126    55   130    1
   127    56    58    1
   128    56   131    1
   129    56   132    1
   130    57    58    1
   131    57   133    1
   132    57   134    1
   133    58    59    1
   134    58   135    1
   135    59   136    1
   136    59   137    1
   137    59   138    1
   138    60    61    1
   139    60   139    1
   140    61    62    1
   141    61   140    1
   142    62    64    1
   143    62   141    1
   144    63    64    1
   145    63    65    1
   146    63   142    1
   147    64   143    1
   148    65   145    1
   149    65   146    1
   150    66    67    1
   151    66   148    1
   152    67    68    1
   153    67   150    1
   154    68    70    1
   155    68   151    1
   156    69    70    1
   157    69    71    1
   158    69   152    1
   159    70   153    1
   160    71   154    1
   161    71   155    1
   162    72    73    1
   163    72   156    1
   164    73    74    1
   165    73   159    1
   166    74    76    1
   167    74   161    1
   168    75    76    1
   169    75    77    1
   170    75   162    1
   171    76   163    1
   172    77   165    1
   173    77   166    1
   174    78    79    1
   175    78   168    1
   176    79    80    1
   177    79   169    1
   178    80    82    1
   179    80   171    1
   180    81    82    1
   181    81    83    1
   182    81   172    1
   183    82   173    1
   184    83   175    1
   185    83   176    1
   186    84    85    1
   187    84   177    1
   188    85    86    1
   189    85   179    1
   190    86    87    1
   191    86   180    1
   192    87    88    1
   193    87   181    1
   194    88    89    1
   195    88   182    1
   196    89   184    1
   197    89   185    1
   198    90    91    1
   199    90   186    1
   200    91    92    1
   201    91   188    1
   202    92    93    1
   203    92   190    1
   204    93    94    1
   205    93   191    1
   206    94    95    1
   207    94   192    1
   208    95   194    1
   209    95   195    1
   210    95   196    1
