@<TRIPOS>MOLECULE
IMPHY007284
 33 33 0 0 0
SMALL
GASTEIGER

@<TRIPOS>ATOM
      1 O           4.5981    2.0000    0.0000 O.3     1  UNL1       -0.4645
      2 O           2.0000   -2.5000    0.0000 O.2     1  UNL1       -0.2924
      3 O           6.3301    2.0000    0.0000 O.2     1  UNL1       -0.2512
      4 C           3.7320   -0.5000    0.0000 C.3     1  UNL1       -0.0249
      5 C           3.7320    0.5000    0.0000 C.3     1  UNL1       -0.0060
      6 C           2.8660   -1.0000    0.0000 C.3     1  UNL1        0.0136
      7 C           4.5981   -1.0000    0.0000 C.3     1  UNL1       -0.0305
      8 C           4.5981    1.0000    0.0000 C.3     1  UNL1        0.0953
      9 C           2.8660    1.0000    0.0000 C.3     1  UNL1       -0.0591
     10 C           2.8660   -2.0000    0.0000 C.2     1  UNL1        0.1589
     11 C           4.5981   -2.0000    0.0000 C.2     1  UNL1       -0.0775
     12 C           3.7320   -2.5000    0.0000 C.2     1  UNL1       -0.0120
     13 C           3.7320   -3.5000    0.0000 C.3     1  UNL1       -0.0367
     14 C           5.4641    2.5000    0.0000 C.2     1  UNL1        0.3040
     15 C           5.4641    3.5000    0.0000 C.3     1  UNL1        0.0332
     16 H           4.2690   -0.1900    0.0000 H       1  UNL1        0.0311
     17 H           3.7320    1.1200    0.0000 H       1  UNL1        0.0334
     18 H           2.6540   -0.4174    0.0000 H       1  UNL1        0.0348
     19 H           2.2554   -1.1077    0.0000 H       1  UNL1        0.0348
     20 H           5.2087   -1.1077    0.0000 H       1  UNL1        0.0310
     21 H           4.8101   -0.4174    0.0000 H       1  UNL1        0.0310
     22 H           4.8101    0.4174    0.0000 H       1  UNL1        0.0700
     23 H           5.2087    1.1077    0.0000 H       1  UNL1        0.0700
     24 H           3.1760    1.5369    0.0000 H       1  UNL1        0.0234
     25 H           2.3291    1.3100    0.0000 H       1  UNL1        0.0234
     26 H           2.5560    0.4631    0.0000 H       1  UNL1        0.0234
     27 H           5.1350   -2.3100    0.0000 H       1  UNL1        0.0576
     28 H           3.1120   -3.5000    0.0000 H       1  UNL1        0.0278
     29 H           3.7320   -4.1200    0.0000 H       1  UNL1        0.0278
     30 H           4.3520   -3.5000    0.0000 H       1  UNL1        0.0278
     31 H           6.0841    3.5000    0.0000 H       1  UNL1        0.0342
     32 H           5.4641    4.1200    0.0000 H       1  UNL1        0.0342
     33 H           4.8441    3.5000    0.0000 H       1  UNL1        0.0342
@<TRIPOS>BOND
     1     1     8    1
     2     1    14    1
     3     2    10    2
     4     3    14    2
     5     4     5    1
     6     4     6    1
     7     4     7    1
     8     4    16    1
     9     5     8    1
    10     5     9    1
    11     5    17    1
    12     6    10    1
    13     6    18    1
    14     6    19    1
    15     7    11    1
    16     7    20    1
    17     7    21    1
    18     8    22    1
    19     8    23    1
    20     9    24    1
    21     9    25    1
    22     9    26    1
    23    10    12    1
    24    11    12    2
    25    11    27    1
    26    12    13    1
    27    13    28    1
    28    13    29    1
    29    13    30    1
    30    14    15    1
    31    15    31    1
    32    15    32    1
    33    15    33    1
