@<TRIPOS>MOLECULE
IMPHY013976
 39 41 0 0 0
SMALL
GASTEIGER

@<TRIPOS>ATOM
      1 C           4.0984   -0.7554    0.0000 C.3     1  UNL1       -0.0199
      2 C           3.1974   -0.3215    0.0000 C.3     1  UNL1       -0.0137
      3 C           4.5984    1.4352    0.0000 C.3     1  UNL1       -0.0317
      4 C           3.9916    0.4214    0.0000 C.3     1  UNL1       -0.0430
      5 C           3.9624   -1.7401    0.0000 C.3     1  UNL1       -0.0376
      6 C           4.9994   -0.3215    0.0000 C.3     1  UNL1       -0.0463
      7 C           3.5984    1.4352    0.0000 C.3     1  UNL1       -0.0110
      8 C           5.2219    0.6534    0.0000 C.3     1  UNL1       -0.0489
      9 C           2.5124   -1.0418    0.0000 C.3     1  UNL1       -0.0457
     10 C           2.9749    0.6534    0.0000 C.2     1  UNL1       -0.0671
     11 C           2.9842   -1.9168    0.0000 C.3     1  UNL1       -0.0494
     12 C           4.6840   -2.4324    0.0000 C.3     1  UNL1       -0.0619
     13 C           3.6732    2.4324    0.0000 C.3     1  UNL1       -0.0558
     14 C           2.7722    1.9986    0.0000 C.3     1  UNL1       -0.0558
     15 C           2.0000    0.8759    0.0000 C.2     1  UNL1       -0.0986
     16 H           2.5996   -0.1574    0.0000 H       1  UNL1        0.0351
     17 H           4.8674    1.9938    0.0000 H       1  UNL1        0.0309
     18 H           3.5838    0.8884    0.0000 H       1  UNL1        0.0274
     19 H           3.4215    0.1775    0.0000 H       1  UNL1        0.0274
     20 H           4.5481   -1.5366    0.0000 H       1  UNL1        0.0304
     21 H           5.1374   -0.9260    0.0000 H       1  UNL1        0.0271
     22 H           5.6194   -0.3215    0.0000 H       1  UNL1        0.0271
     23 H           5.7805    0.3844    0.0000 H       1  UNL1        0.0268
     24 H           5.6085    1.1382    0.0000 H       1  UNL1        0.0268
     25 H           2.1105   -0.5697    0.0000 H       1  UNL1        0.0271
     26 H           2.0006   -1.3918    0.0000 H       1  UNL1        0.0271
     27 H           2.4105   -2.1521    0.0000 H       1  UNL1        0.0268
     28 H           3.1579   -2.5120    0.0000 H       1  UNL1        0.0268
     29 H           4.2548   -2.8798    0.0000 H       1  UNL1        0.0233
     30 H           5.1314   -2.8617    0.0000 H       1  UNL1        0.0233
     31 H           5.1132   -1.9851    0.0000 H       1  UNL1        0.0233
     32 H           4.2914    2.3861    0.0000 H       1  UNL1        0.0238
     33 H           3.7195    3.0507    0.0000 H       1  UNL1        0.0238
     34 H           3.0549    2.4788    0.0000 H       1  UNL1        0.0238
     35 H           3.1214    2.5108    0.0000 H       1  UNL1        0.0238
     36 H           2.2599    2.3478    0.0000 H       1  UNL1        0.0238
     37 H           2.4229    1.4863    0.0000 H       1  UNL1        0.0238
     38 H           1.8172    1.4684    0.0000 H       1  UNL1        0.0535
     39 H           1.5783    0.4214    0.0000 H       1  UNL1        0.0535
@<TRIPOS>BOND
     1     1     2    1
     2     1     4    1
     3     1     5    1
     4     1     6    1
     5     2     9    1
     6     2    10    1
     7     2    16    1
     8     3     4    1
     9     3     7    1
    10     3     8    1
    11     3    17    1
    12     4    18    1
    13     4    19    1
    14     5    11    1
    15     5    12    1
    16     5    20    1
    17     6     8    1
    18     6    21    1
    19     6    22    1
    20     7    10    1
    21     7    13    1
    22     7    14    1
    23     8    23    1
    24     8    24    1
    25     9    11    1
    26     9    25    1
    27     9    26    1
    28    10    15    2
    29    11    27    1
    30    11    28    1
    31    12    29    1
    32    12    30    1
    33    12    31    1
    34    13    32    1
    35    13    33    1
    36    13    34    1
    37    14    35    1
    38    14    36    1
    39    14    37    1
    40    15    38    1
    41    15    39    1
