@<TRIPOS>MOLECULE
IMPHY001937
 112 119 0 0 0
SMALL
GASTEIGER

@<TRIPOS>ATOM
      1 O          10.8604   -2.5560    0.0000 O.3     1  UNL1       -0.3422
      2 O           8.6963   -1.3404    0.0000 O.3     1  UNL1       -0.3850
      3 O           9.0743   -3.4233    0.0000 O.3     1  UNL1       -0.3480
      4 O           7.7331    2.5926    0.0000 O.3     1  UNL1       -0.3419
      5 O           7.7412    4.6843    0.0000 O.3     1  UNL1       -0.3866
      6 O           9.5646    5.7091    0.0000 O.3     1  UNL1       -0.3888
      7 O           6.8671    4.0926    0.0000 O.3     1  UNL1       -0.3460
      8 O           6.0010    1.5926    0.0000 O.3     1  UNL1       -0.3378
      9 O           4.2690    2.5926    0.0000 O.3     1  UNL1       -0.3864
     10 O           4.2690    4.5926    0.0000 O.3     1  UNL1       -0.3869
     11 O           4.2690    1.5926    0.0000 O.3     1  UNL1       -0.3431
     12 O           6.0010   -0.4074    0.0000 O.3     1  UNL1       -0.3841
     13 O           4.2690   -1.4074    0.0000 O.3     1  UNL1       -0.3864
     14 O           2.5369   -0.4074    0.0000 O.3     1  UNL1       -0.3866
     15 C           9.4983   -0.4875    0.0000 C.3     1  UNL1        0.0028
     16 C          10.3738   -0.0043    0.0000 C.3     1  UNL1       -0.0271
     17 C           9.6887   -1.4632    0.0000 C.3     1  UNL1        0.1051
     18 C          10.3930    0.9955    0.0000 C.3     1  UNL1       -0.0304
     19 C          10.6753   -1.5853    0.0000 C.3     1  UNL1        0.0918
     20 C           9.5368    1.5121    0.0000 C.3     1  UNL1       -0.0261
     21 C          11.0978   -0.6855    0.0000 C.3     1  UNL1       -0.0201
     22 C           8.6420    0.0291    0.0000 C.3     1  UNL1       -0.0444
     23 C           9.2726   -2.3595    0.0000 C.3     1  UNL1        0.0421
     24 C           8.6613    1.0289    0.0000 C.3     1  UNL1       -0.0485
     25 C           9.5408    2.5538    0.0000 C.3     1  UNL1        0.0209
     26 C           9.9952   -3.0335    0.0000 C.3     1  UNL1        0.1757
     27 C           8.5103   -0.6421    0.0000 C.3     1  UNL1       -0.0566
     28 C          11.3126    1.4847    0.0000 C.3     1  UNL1       -0.0311
     29 C          10.4489    3.0641    0.0000 C.2     1  UNL1       -0.0622
     30 C           8.5991    3.0926    0.0000 C.3     1  UNL1        0.0993
     31 C           8.2911   -2.5510    0.0000 C.3     1  UNL1       -0.0548
     32 C          10.7933   -3.6360    0.0000 C.3     1  UNL1        0.0021
     33 C          11.3407    2.5260    0.0000 C.2     1  UNL1       -0.0838
     34 C           8.6691    2.0638    0.0000 C.3     1  UNL1       -0.0531
     35 C          10.4781    4.1487    0.0000 C.3     1  UNL1       -0.0025
     36 C           8.6033    4.1776    0.0000 C.3     1  UNL1        0.1083
     37 C           9.5491    4.7092    0.0000 C.3     1  UNL1        0.0872
     38 C          10.6705   -4.6285    0.0000 C.3     1  UNL1       -0.0435
     39 C           8.9515   -4.4158    0.0000 C.3     1  UNL1        0.0535
     40 C           9.7496   -5.0183    0.0000 C.3     1  UNL1       -0.0201
     41 C           6.8671    3.0926    0.0000 C.3     1  UNL1        0.1883
     42 C           9.6268   -6.0108    0.0000 C.3     1  UNL1       -0.0603
     43 C           6.0010    2.5926    0.0000 C.3     1  UNL1        0.1406
     44 C           5.1350    3.0926    0.0000 C.3     1  UNL1        0.1141
     45 C           6.0010    4.5926    0.0000 C.3     1  UNL1        0.0792
     46 C           5.1350    4.0926    0.0000 C.3     1  UNL1        0.1069
     47 C           5.1350    1.0926    0.0000 C.3     1  UNL1        0.1884
     48 C           5.1350    0.0926    0.0000 C.3     1  UNL1        0.1341
     49 C           4.2690   -0.4074    0.0000 C.3     1  UNL1        0.1140
     50 C           3.4030    1.0926    0.0000 C.3     1  UNL1        0.0873
     51 C           3.4030    0.0926    0.0000 C.3     1  UNL1        0.1095
     52 C           2.5369    1.5926    0.0000 C.3     1  UNL1       -0.0361
     53 H          11.1572    0.3254    0.0000 H       1  UNL1        0.0311
     54 H          11.1174    0.5508    0.0000 H       1  UNL1        0.0310
     55 H          11.5186   -1.6915    0.0000 H       1  UNL1        0.0626
     56 H          10.2778    1.9286    0.0000 H       1  UNL1        0.0313
     57 H          11.6282   -1.0065    0.0000 H       1  UNL1        0.0294
     58 H          11.4728   -0.1917    0.0000 H       1  UNL1        0.0294
     59 H           8.0336    0.1485    0.0000 H       1  UNL1        0.0272
     60 H           8.4188   -0.5493    0.0000 H       1  UNL1        0.0272
     61 H           8.8902   -1.8714    0.0000 H       1  UNL1        0.0379
     62 H           8.4605    1.6155    0.0000 H       1  UNL1        0.0268
     63 H           8.0488    0.9330    0.0000 H       1  UNL1        0.0268
     64 H           8.4144   -0.0296    0.0000 H       1  UNL1        0.0236
     65 H           7.8978   -0.7380    0.0000 H       1  UNL1        0.0236
     66 H           8.6062   -1.2546    0.0000 H       1  UNL1        0.0236
     67 H          11.5059    0.8956    0.0000 H       1  UNL1        0.0310
     68 H          11.9261    1.5743    0.0000 H       1  UNL1        0.0310
     69 H           8.0628    3.4036    0.0000 H       1  UNL1        0.0632
     70 H           8.3227   -1.8352    0.0000 H       1  UNL1        0.2103
     71 H           8.1723   -1.9425    0.0000 H       1  UNL1        0.0235
     72 H           7.6826   -2.6698    0.0000 H       1  UNL1        0.0235
     73 H           8.4098   -3.1596    0.0000 H       1  UNL1        0.0235
     74 H          11.3860   -3.8179    0.0000 H       1  UNL1        0.0317
     75 H          11.0753   -3.0839    0.0000 H       1  UNL1        0.0317
     76 H          11.8847    2.8235    0.0000 H       1  UNL1        0.0572
     77 H           8.3653    2.6043    0.0000 H       1  UNL1        0.0239
     78 H           8.1286    1.7600    0.0000 H       1  UNL1        0.0239
     79 H           8.9728    1.5233    0.0000 H       1  UNL1        0.0239
     80 H          11.0859    4.0262    0.0000 H       1  UNL1        0.0336
     81 H          10.7029    4.7265    0.0000 H       1  UNL1        0.0336
     82 H           8.0646    3.8707    0.0000 H       1  UNL1        0.0645
     83 H          10.0914    5.0098    0.0000 H       1  UNL1        0.0623
     84 H          10.8093   -5.2327    0.0000 H       1  UNL1        0.0270
     85 H          11.2896   -4.5966    0.0000 H       1  UNL1        0.0270
     86 H           8.3588   -4.2339    0.0000 H       1  UNL1        0.0563
     87 H           8.6695   -4.9679    0.0000 H       1  UNL1        0.0563
     88 H           9.1786   -5.2600    0.0000 H       1  UNL1        0.0320
     89 H           7.7459    5.3042    0.0000 H       1  UNL1        0.2100
     90 H           6.8671    2.4726    0.0000 H       1  UNL1        0.0938
     91 H           9.0115   -5.9346    0.0000 H       1  UNL1        0.0233
     92 H           9.5506   -6.6261    0.0000 H       1  UNL1        0.0233
     93 H          10.2421   -6.0869    0.0000 H       1  UNL1        0.0233
     94 H          10.1062    6.0108    0.0000 H       1  UNL1        0.2099
     95 H           5.4641    2.2826    0.0000 H       1  UNL1        0.0675
     96 H           4.5981    3.4026    0.0000 H       1  UNL1        0.0648
     97 H           6.3996    5.0676    0.0000 H       1  UNL1        0.0587
     98 H           5.6025    5.0676    0.0000 H       1  UNL1        0.0587
     99 H           5.1350    4.7126    0.0000 H       1  UNL1        0.0643
    100 H           5.6720    0.7826    0.0000 H       1  UNL1        0.0938
    101 H           3.7320    2.9026    0.0000 H       1  UNL1        0.2100
    102 H           4.2690    5.2126    0.0000 H       1  UNL1        0.2100
    103 H           5.1350   -0.5274    0.0000 H       1  UNL1        0.0671
    104 H           3.7320   -0.7174    0.0000 H       1  UNL1        0.0648
    105 H           3.4030    1.7126    0.0000 H       1  UNL1        0.0621
    106 H           2.8660    0.4026    0.0000 H       1  UNL1        0.0646
    107 H           6.0010   -1.0274    0.0000 H       1  UNL1        0.2101
    108 H           2.8469    2.1296    0.0000 H       1  UNL1        0.0255
    109 H           2.0000    1.9026    0.0000 H       1  UNL1        0.0255
    110 H           2.2269    1.0557    0.0000 H       1  UNL1        0.0255
    111 H           3.7320   -1.7174    0.0000 H       1  UNL1        0.2100
    112 H           2.0000   -0.0974    0.0000 H       1  UNL1        0.2100
@<TRIPOS>BOND
     1     1    19    1
     2    26     1    1
     3    17     2    1
     4     2    70    1
     5     3    26    1
     6     3    39    1
     7    30     4    1
     8    41     4    1
     9    36     5    1
    10     5    89    1
    11    37     6    1
    12     6    94    1
    13     7    41    1
    14     7    45    1
    15    43     8    1
    16    47     8    1
    17    44     9    1
    18     9   101    1
    19    46    10    1
    20    10   102    1
    21    11    47    1
    22    11    50    1
    23    48    12    1
    24    12   107    1
    25    49    13    1
    26    13   111    1
    27    51    14    1
    28    14   112    1
    29    15    16    1
    30    15    17    1
    31    15    22    1
    32    15    27    1
    33    16    18    1
    34    16    21    1
    35    16    53    1
    36    17    19    1
    37    17    23    1
    38    18    20    1
    39    18    28    1
    40    18    54    1
    41    19    21    1
    42    19    55    1
    43    20    24    1
    44    20    25    1
    45    20    56    1
    46    21    57    1
    47    21    58    1
    48    22    24    1
    49    22    59    1
    50    22    60    1
    51    23    26    1
    52    23    31    1
    53    23    61    1
    54    24    62    1
    55    24    63    1
    56    25    29    1
    57    25    30    1
    58    25    34    1
    59    26    32    1
    60    27    64    1
    61    27    65    1
    62    27    66    1
    63    28    33    1
    64    28    67    1
    65    28    68    1
    66    29    33    2
    67    29    35    1
    68    30    36    1
    69    30    69    1
    70    31    71    1
    71    31    72    1
    72    31    73    1
    73    32    38    1
    74    32    74    1
    75    32    75    1
    76    33    76    1
    77    34    77    1
    78    34    78    1
    79    34    79    1
    80    35    37    1
    81    35    80    1
    82    35    81    1
    83    36    37    1
    84    36    82    1
    85    37    83    1
    86    38    40    1
    87    38    84    1
    88    38    85    1
    89    39    40    1
    90    39    86    1
    91    39    87    1
    92    40    42    1
    93    40    88    1
    94    41    43    1
    95    41    90    1
    96    42    91    1
    97    42    92    1
    98    42    93    1
    99    43    44    1
   100    43    95    1
   101    44    46    1
   102    44    96    1
   103    45    46    1
   104    45    97    1
   105    45    98    1
   106    46    99    1
   107    47    48    1
   108    47   100    1
   109    48    49    1
   110    48   103    1
   111    49    51    1
   112    49   104    1
   113    50    51    1
   114    50    52    1
   115    50   105    1
   116    51   106    1
   117    52   108    1
   118    52   109    1
   119    52   110    1
