@<TRIPOS>MOLECULE
IMPHY006832
 91 96 0 0 0
SMALL
GASTEIGER

@<TRIPOS>ATOM
      1 O           7.8521   -1.4688    0.0000 O.3     1  UNL1       -0.3719
      2 O           8.1002    0.8096    0.0000 O.3     1  UNL1       -0.4546
      3 O           3.7319   -0.6873    0.0000 O.3     1  UNL1       -0.4608
      4 O           5.4900   -3.7597    0.0000 O.3     1  UNL1       -0.4608
      5 O           4.8598    2.4220    0.0000 O.3     1  UNL1       -0.3440
      6 O           3.3178    1.7641    0.0000 O.3     1  UNL1       -0.3669
      7 O           7.8755    4.8390    0.0000 O.2     1  UNL1       -0.4672
      8 O           8.9662   -0.6904    0.0000 O.2     1  UNL1       -0.2453
      9 O           2.8486   -2.1772    0.0000 O.2     1  UNL1       -0.2512
     10 O           3.7580   -3.7664    0.0000 O.2     1  UNL1       -0.2512
     11 C           5.5021   -0.6904    0.0000 C.3     1  UNL1        0.0149
     12 C           6.3682   -1.1904    0.0000 C.3     1  UNL1        0.0087
     13 C           5.5021    0.3096    0.0000 C.3     1  UNL1       -0.0147
     14 C           6.3842   -2.2319    0.0000 C.3     1  UNL1        0.0343
     15 C           6.3682    0.8096    0.0000 C.3     1  UNL1        0.0346
     16 C           7.2342   -0.6904    0.0000 C.3     1  UNL1        0.1005
     17 C           7.2342    0.3096    0.0000 C.3     1  UNL1        0.1389
     18 C           4.5921   -1.1973    0.0000 C.3     1  UNL1        0.1124
     19 C           5.4862   -2.7597    0.0000 C.3     1  UNL1        0.1142
     20 C           7.3722   -2.3391    0.0000 C.3     1  UNL1        0.0573
     21 C           4.5841   -2.2389    0.0000 C.3     1  UNL1        0.0227
     22 C           4.5916    0.6740    0.0000 C.3     1  UNL1        0.0026
     23 C           4.6361   -0.1904    0.0000 C.3     1  UNL1       -0.0555
     24 C           6.5078    1.7804    0.0000 C.2     1  UNL1       -0.0316
     25 C           6.8942   -3.0921    0.0000 C.3     1  UNL1       -0.0537
     26 C           7.2342    1.3096    0.0000 C.3     1  UNL1       -0.0520
     27 C           5.8378    2.4966    0.0000 C.3     1  UNL1        0.0845
     28 C           4.3062    1.6124    0.0000 C.3     1  UNL1        0.1572
     29 C           7.3897    2.1961    0.0000 C.2     1  UNL1       -0.0599
     30 C           6.3114    3.3489    0.0000 C.3     1  UNL1       -0.0092
     31 C           7.2686    3.1635    0.0000 C.3     1  UNL1        0.0409
     32 C           8.2659    1.7141    0.0000 C.3     1  UNL1       -0.0428
     33 C           8.9662    0.3096    0.0000 C.2     1  UNL1        0.3349
     34 C           2.8602   -1.1772    0.0000 C.2     1  UNL1        0.3042
     35 C           7.9989    3.8466    0.0000 C.ar    1  UNL1        0.1120
     36 C           4.6259   -4.2630    0.0000 C.2     1  UNL1        0.3042
     37 C           9.8322    0.8096    0.0000 C.2     1  UNL1        0.0293
     38 C           2.0000   -0.6673    0.0000 C.3     1  UNL1        0.0332
     39 C           8.9808    3.6573    0.0000 C.ar    1  UNL1       -0.0201
     40 C           4.6298   -5.2630    0.0000 C.3     1  UNL1        0.0332
     41 C           9.4642    4.5327    0.0000 C.ar    1  UNL1       -0.0236
     42 C           8.7811    5.2630    0.0000 C.ar    1  UNL1        0.0921
     43 C           9.8322    1.8096    0.0000 C.3     1  UNL1       -0.0333
     44 C          10.6983    0.3096    0.0000 C.2     1  UNL1       -0.0774
     45 C          11.5643    0.8096    0.0000 C.3     1  UNL1       -0.0461
     46 H           5.6320   -1.6154    0.0000 H       1  UNL1        0.0341
     47 H           6.2382   -0.1154    0.0000 H       1  UNL1        0.0318
     48 H           8.0368   -0.4106    0.0000 H       1  UNL1        0.0636
     49 H           7.7711   -0.0004    0.0000 H       1  UNL1        0.0769
     50 H           3.8519   -1.6152    0.0000 H       1  UNL1        0.0741
     51 H           6.2247   -3.1804    0.0000 H       1  UNL1        0.0741
     52 H           7.2249   -2.9413    0.0000 H       1  UNL1        0.0567
     53 H           7.9498   -2.5644    0.0000 H       1  UNL1        0.0567
     54 H           3.9741   -2.1281    0.0000 H       1  UNL1        0.0337
     55 H           4.3705   -2.8209    0.0000 H       1  UNL1        0.0337
     56 H           3.9731    0.6308    0.0000 H       1  UNL1        0.0317
     57 H           4.4956    0.0615    0.0000 H       1  UNL1        0.0317
     58 H           4.9461    0.3465    0.0000 H       1  UNL1        0.0236
     59 H           4.0992    0.1196    0.0000 H       1  UNL1        0.0236
     60 H           4.3261   -0.7274    0.0000 H       1  UNL1        0.0236
     61 H           6.3609   -3.4083    0.0000 H       1  UNL1        0.0237
     62 H           7.2104   -3.6254    0.0000 H       1  UNL1        0.0237
     63 H           7.4275   -2.7759    0.0000 H       1  UNL1        0.0237
     64 H           7.5442    0.7726    0.0000 H       1  UNL1        0.0239
     65 H           7.7711    1.6196    0.0000 H       1  UNL1        0.0239
     66 H           6.9242    1.8465    0.0000 H       1  UNL1        0.0239
     67 H           5.3792    3.2123    0.0000 H       1  UNL1        0.0644
     68 H           3.7496    0.9700    0.0000 H       1  UNL1        0.0908
     69 H           6.4926    3.9418    0.0000 H       1  UNL1        0.0303
     70 H           5.7408    3.5914    0.0000 H       1  UNL1        0.0303
     71 H           8.0679    2.8744    0.0000 H       1  UNL1        0.0425
     72 H           7.9671    1.1709    0.0000 H       1  UNL1        0.0275
     73 H           8.8092    1.4153    0.0000 H       1  UNL1        0.0275
     74 H           8.5647    2.2574    0.0000 H       1  UNL1        0.0275
     75 H           3.0929    2.3419    0.0000 H       1  UNL1        0.2125
     76 H           2.3162   -0.1339    0.0000 H       1  UNL1        0.0342
     77 H           1.4667   -0.3511    0.0000 H       1  UNL1        0.0342
     78 H           1.6838   -1.2006    0.0000 H       1  UNL1        0.0342
     79 H           9.2437    3.0958    0.0000 H       1  UNL1        0.0652
     80 H           4.0098   -5.2654    0.0000 H       1  UNL1        0.0342
     81 H           4.6322   -5.8830    0.0000 H       1  UNL1        0.0342
     82 H           5.2498   -5.2606    0.0000 H       1  UNL1        0.0342
     83 H          10.0795    4.6092    0.0000 H       1  UNL1        0.0649
     84 H           8.8985    5.8718    0.0000 H       1  UNL1        0.1029
     85 H          10.4522    1.8096    0.0000 H       1  UNL1        0.0280
     86 H           9.8322    2.4296    0.0000 H       1  UNL1        0.0280
     87 H           9.2122    1.8096    0.0000 H       1  UNL1        0.0280
     88 H          10.6983   -0.3104    0.0000 H       1  UNL1        0.0574
     89 H          11.8743    0.2726    0.0000 H       1  UNL1        0.0272
     90 H          12.1012    1.1196    0.0000 H       1  UNL1        0.0272
     91 H          11.2543    1.3465    0.0000 H       1  UNL1        0.0272
@<TRIPOS>BOND
     1     1    16    1
     2     1    20    1
     3    17     2    1
     4     2    33    1
     5     3    18    1
     6     3    34    1
     7     4    19    1
     8     4    36    1
     9     5    27    1
    10     5    28    1
    11     6    28    1
    12     6    75    1
    13     7    35   ar
    14     7    42   ar
    15     8    33    2
    16     9    34    2
    17    10    36    2
    18    11    12    1
    19    11    13    1
    20    11    18    1
    21    11    23    1
    22    12    14    1
    23    12    16    1
    24    12    46    1
    25    13    15    1
    26    13    22    1
    27    13    47    1
    28    14    19    1
    29    14    20    1
    30    14    25    1
    31    15    17    1
    32    15    24    1
    33    15    26    1
    34    16    17    1
    35    16    48    1
    36    17    49    1
    37    18    21    1
    38    18    50    1
    39    19    21    1
    40    19    51    1
    41    20    52    1
    42    20    53    1
    43    21    54    1
    44    21    55    1
    45    22    28    1
    46    22    56    1
    47    22    57    1
    48    23    58    1
    49    23    59    1
    50    23    60    1
    51    24    27    1
    52    24    29    2
    53    25    61    1
    54    25    62    1
    55    25    63    1
    56    26    64    1
    57    26    65    1
    58    26    66    1
    59    27    30    1
    60    27    67    1
    61    28    68    1
    62    29    31    1
    63    29    32    1
    64    30    31    1
    65    30    69    1
    66    30    70    1
    67    31    35    1
    68    31    71    1
    69    32    72    1
    70    32    73    1
    71    32    74    1
    72    33    37    1
    73    34    38    1
    74    35    39   ar
    75    36    40    1
    76    37    43    1
    77    37    44    2
    78    38    76    1
    79    38    77    1
    80    38    78    1
    81    39    41   ar
    82    39    79    1
    83    40    80    1
    84    40    81    1
    85    40    82    1
    86    41    42   ar
    87    41    83    1
    88    42    84    1
    89    43    85    1
    90    43    86    1
    91    43    87    1
    92    44    45    1
    93    44    88    1
    94    45    89    1
    95    45    90    1
    96    45    91    1
