@<TRIPOS>MOLECULE
IMPHY004881
 20 20 0 0 0
SMALL
GASTEIGER

@<TRIPOS>ATOM
      1 S           5.2111   -0.9307    0.0000 S.2     1  UNL1        0.0058
      2 O           3.9511    0.3294    0.0000 O.3     1  UNL1       -0.4662
      3 N           3.4511   -1.2094    0.0000 N.am    1  UNL1       -0.3055
      4 C           2.9511    0.3294    0.0000 C.3     1  UNL1        0.1248
      5 C           2.6420   -0.6216    0.0000 C.3     1  UNL1        0.0519
      6 C           2.9511    1.3294    0.0000 C.3     1  UNL1       -0.0145
      7 C           2.0000    0.6384    0.0000 C.3     1  UNL1       -0.0234
      8 C           3.8171    1.8294    0.0000 C.3     1  UNL1       -0.0616
      9 C           4.2601   -0.6216    0.0000 C.2     1  UNL1        0.2288
     10 H           2.0756   -0.3695    0.0000 H       1  UNL1        0.0501
     11 H           2.3320   -1.1586    0.0000 H       1  UNL1        0.0501
     12 H           2.7390    1.9120    0.0000 H       1  UNL1        0.0301
     13 H           2.3405    1.2218    0.0000 H       1  UNL1        0.0301
     14 H           2.1916    1.2281    0.0000 H       1  UNL1        0.0268
     15 H           1.4103    0.8300    0.0000 H       1  UNL1        0.0268
     16 H           1.8084    0.0488    0.0000 H       1  UNL1        0.0268
     17 H           3.4511   -1.8294    0.0000 H       1  UNL1        0.1495
     18 H           4.1271    1.2925    0.0000 H       1  UNL1        0.0231
     19 H           4.3540    2.1394    0.0000 H       1  UNL1        0.0231
     20 H           3.5071    2.3664    0.0000 H       1  UNL1        0.0231
@<TRIPOS>BOND
     1     1     9    2
     2     2     4    1
     3     2     9    1
     4     3     5    1
     5     3     9    1
     6     3    17    1
     7     4     5    1
     8     4     6    1
     9     4     7    1
    10     5    10    1
    11     5    11    1
    12     6     8    1
    13     6    12    1
    14     6    13    1
    15     7    14    1
    16     7    15    1
    17     7    16    1
    18     8    18    1
    19     8    19    1
    20     8    20    1
