@<TRIPOS>MOLECULE
IMPHY004551
 60 62 0 0 0
SMALL
GASTEIGER

@<TRIPOS>ATOM
      1 O           6.3301   -2.0000    0.0000 O.3     1  UNL1       -0.3394
      2 O           8.0622   -2.0000    0.0000 O.3     1  UNL1       -0.3484
      3 O           4.5981   -4.0000    0.0000 O.3     1  UNL1       -0.3864
      4 O           6.3301   -5.0000    0.0000 O.3     1  UNL1       -0.3864
      5 O           8.0622   -4.0000    0.0000 O.3     1  UNL1       -0.3841
      6 O           4.5981   -1.0000    0.0000 O.3     1  UNL1       -0.4589
      7 O           2.8660   -1.0000    0.0000 O.2     1  UNL1       -0.2456
      8 O          10.6603    2.5000    0.0000 O.3     1  UNL1       -0.5033
      9 O           8.9282    3.5000    0.0000 O.3     1  UNL1       -0.5033
     10 O           4.5981    4.0000    0.0000 O.3     1  UNL1       -0.5033
     11 O           2.8660    5.0000    0.0000 O.3     1  UNL1       -0.5033
     12 C           5.4641   -3.5000    0.0000 C.3     1  UNL1        0.1129
     13 C           6.3301   -4.0000    0.0000 C.3     1  UNL1        0.1141
     14 C           5.4641   -2.5000    0.0000 C.3     1  UNL1        0.1240
     15 C           7.1962   -3.5000    0.0000 C.3     1  UNL1        0.1341
     16 C           7.1962   -2.5000    0.0000 C.3     1  UNL1        0.1880
     17 C           4.5981   -2.0000    0.0000 C.3     1  UNL1        0.1215
     18 C           8.0622   -1.0000    0.0000 C.3     1  UNL1        0.0547
     19 C           8.9282   -0.5000    0.0000 C.3     1  UNL1       -0.0039
     20 C           8.9282    0.5000    0.0000 C.ar    1  UNL1       -0.0415
     21 C           3.7320   -0.5000    0.0000 C.2     1  UNL1        0.3320
     22 C           9.7942    1.0000    0.0000 C.ar    1  UNL1       -0.0133
     23 C           8.0622    1.0000    0.0000 C.ar    1  UNL1       -0.0548
     24 C           3.7320    0.5000    0.0000 C.2     1  UNL1        0.0231
     25 C           9.7942    2.0000    0.0000 C.ar    1  UNL1        0.1585
     26 C           8.0622    2.0000    0.0000 C.ar    1  UNL1       -0.0163
     27 C           8.9282    2.5000    0.0000 C.ar    1  UNL1        0.1582
     28 C           2.8660    1.0000    0.0000 C.2     1  UNL1       -0.0477
     29 C           2.8660    2.0000    0.0000 C.ar    1  UNL1       -0.0211
     30 C           3.7320    2.5000    0.0000 C.ar    1  UNL1       -0.0094
     31 C           2.0000    2.5000    0.0000 C.ar    1  UNL1       -0.0509
     32 C           3.7320    3.5000    0.0000 C.ar    1  UNL1        0.1588
     33 C           2.0000    3.5000    0.0000 C.ar    1  UNL1       -0.0160
     34 C           2.8660    4.0000    0.0000 C.ar    1  UNL1        0.1582
     35 H           4.9272   -3.1900    0.0000 H       1  UNL1        0.0647
     36 H           5.7932   -4.3100    0.0000 H       1  UNL1        0.0648
     37 H           5.4641   -1.8800    0.0000 H       1  UNL1        0.0658
     38 H           7.1962   -4.1200    0.0000 H       1  UNL1        0.0671
     39 H           7.7331   -2.8100    0.0000 H       1  UNL1        0.0937
     40 H           3.9875   -1.8923    0.0000 H       1  UNL1        0.0725
     41 H           4.3860   -2.5826    0.0000 H       1  UNL1        0.0725
     42 H           4.0611   -3.6900    0.0000 H       1  UNL1        0.2100
     43 H           5.7932   -5.3100    0.0000 H       1  UNL1        0.2100
     44 H           8.5991   -3.6900    0.0000 H       1  UNL1        0.2101
     45 H           7.8501   -0.4174    0.0000 H       1  UNL1        0.0564
     46 H           7.4516   -1.1077    0.0000 H       1  UNL1        0.0564
     47 H           9.1403   -1.0826    0.0000 H       1  UNL1        0.0335
     48 H           9.5388   -0.3923    0.0000 H       1  UNL1        0.0335
     49 H          10.3312    0.6900    0.0000 H       1  UNL1        0.0658
     50 H           7.5252    0.6900    0.0000 H       1  UNL1        0.0621
     51 H           4.2690    0.8100    0.0000 H       1  UNL1        0.0689
     52 H           7.5252    2.3100    0.0000 H       1  UNL1        0.0655
     53 H           2.3291    0.6900    0.0000 H       1  UNL1        0.0626
     54 H          11.1972    2.1900    0.0000 H       1  UNL1        0.2923
     55 H           8.3913    3.8100    0.0000 H       1  UNL1        0.2923
     56 H           4.2690    2.1900    0.0000 H       1  UNL1        0.0661
     57 H           1.4631    2.1900    0.0000 H       1  UNL1        0.0625
     58 H           1.4631    3.8100    0.0000 H       1  UNL1        0.0655
     59 H           4.5981    4.6200    0.0000 H       1  UNL1        0.2923
     60 H           2.3291    5.3100    0.0000 H       1  UNL1        0.2923
@<TRIPOS>BOND
     1     1    14    1
     2     1    16    1
     3    16     2    1
     4     2    18    1
     5    12     3    1
     6     3    42    1
     7    13     4    1
     8     4    43    1
     9    15     5    1
    10     5    44    1
    11     6    17    1
    12     6    21    1
    13     7    21    2
    14     8    25    1
    15     8    54    1
    16     9    27    1
    17     9    55    1
    18    10    32    1
    19    10    59    1
    20    11    34    1
    21    11    60    1
    22    12    13    1
    23    12    14    1
    24    12    35    1
    25    13    15    1
    26    13    36    1
    27    14    17    1
    28    14    37    1
    29    15    16    1
    30    15    38    1
    31    16    39    1
    32    17    40    1
    33    17    41    1
    34    18    19    1
    35    18    45    1
    36    18    46    1
    37    19    20    1
    38    19    47    1
    39    19    48    1
    40    20    22   ar
    41    20    23   ar
    42    21    24    1
    43    22    25   ar
    44    22    49    1
    45    23    26   ar
    46    23    50    1
    47    24    28    2
    48    24    51    1
    49    25    27   ar
    50    26    27   ar
    51    26    52    1
    52    28    29    1
    53    28    53    1
    54    29    30   ar
    55    29    31   ar
    56    30    32   ar
    57    30    56    1
    58    31    33   ar
    59    31    57    1
    60    32    34   ar
    61    33    34   ar
    62    33    58    1
