@<TRIPOS>MOLECULE
IMPHY014650
 34 34 0 0 0
SMALL
GASTEIGER

@<TRIPOS>ATOM
      1 OG1         5.4641    4.2500    0.0000 O.3     1  THR1       -0.3897
      2 O           3.7320    4.2500    0.0000 O.3     1  THR1       -0.4793
      3 OXT         2.8660    2.7500    0.0000 O.2     1  THR1       -0.2488
      4 O           2.8660    1.7500    0.0000 O.2     0  UNK0       -0.2708
      5 O           2.8660   -4.2500    0.0000 O.3     0  UNK0       -0.5068
      6 N           4.5981    1.7500    0.0000 N.am    1  THR1       -0.2968
      7 CA          4.5981    2.7500    0.0000 C.3     1  THR1        0.1463
      8 CB          5.4641    3.2500    0.0000 C.3     1  THR1        0.0811
      9 CG2         6.3301    2.7500    0.0000 C.3     1  THR1       -0.0367
     10 C           3.7320    3.2500    0.0000 C.2     1  THR1        0.3278
     11 C           3.7320    1.2500    0.0000 C.2     0  UNK0        0.2376
     12 C           3.7320    0.2500    0.0000 C.2     0  UNK0        0.0007
     13 C           2.8660   -1.2500    0.0000 C.ar    0  UNK0       -0.0247
     14 C           2.8660   -0.2500    0.0000 C.2     0  UNK0       -0.0497
     15 C           3.7320   -1.7500    0.0000 C.ar    0  UNK0       -0.0511
     16 C           2.0000   -1.7500    0.0000 C.ar    0  UNK0       -0.0511
     17 C           3.7320   -2.7500    0.0000 C.ar    0  UNK0       -0.0196
     18 C           2.0000   -2.7500    0.0000 C.ar    0  UNK0       -0.0196
     19 C           2.8660   -3.2500    0.0000 C.ar    0  UNK0        0.1169
     20 HA          5.1350    2.4400    0.0000 H       1  THR1        0.0641
     21 HB          6.0010    3.5600    0.0000 H       1  THR1        0.0614
     22 H           5.1350    1.4400    0.0000 H       1  THR1        0.1499
     23 HG21        6.0201    2.2131    0.0000 H       1  THR1        0.0255
     24 HG22        6.8671    2.4400    0.0000 H       1  THR1        0.0255
     25 HG23        6.6401    3.2869    0.0000 H       1  THR1        0.0255
     26 HG1         6.0010    4.5600    0.0000 H       1  THR1        0.2099
     27 H           4.2690   -0.0600    0.0000 H       0  UNK0        0.0669
     28 H           2.3291    0.0600    0.0000 H       0  UNK0        0.0625
     29 H           4.2690   -1.4400    0.0000 H       0  UNK0        0.0625
     30 H           1.4631   -1.4400    0.0000 H       0  UNK0        0.0625
     31 H           3.1951    4.5600    0.0000 H       1  THR1        0.2951
     32 H           4.2690   -3.0600    0.0000 H       0  UNK0        0.0654
     33 H           1.4631   -3.0600    0.0000 H       0  UNK0        0.0654
     34 H           2.3291   -4.5600    0.0000 H       0  UNK0        0.2921
@<TRIPOS>BOND
     1     8     1    1
     2     1    26    1
     3     2    10    1
     4     2    31    1
     5     3    10    2
     6     4    11    2
     7     5    19    1
     8     5    34    1
     9     7     6    1
    10     6    11   am
    11     6    22    1
    12     7     8    1
    13     7    10    1
    14     7    20    1
    15     8     9    1
    16     8    21    1
    17     9    23    1
    18     9    24    1
    19     9    25    1
    20    11    12    1
    21    12    14    2
    22    12    27    1
    23    13    14    1
    24    13    15   ar
    25    13    16   ar
    26    14    28    1
    27    15    17   ar
    28    15    29    1
    29    16    18   ar
    30    16    30    1
    31    17    19   ar
    32    17    32    1
    33    18    19   ar
    34    18    33    1
