@<TRIPOS>MOLECULE
IMPHY009812
 87 91 0 0 0
SMALL
GASTEIGER

@<TRIPOS>ATOM
      1 O           8.5991   -1.3450    0.0000 O.3     1  UNL1       -0.3313
      2 O           6.0010   -1.8450    0.0000 O.3     1  UNL1       -0.3461
      3 O           4.2690   -1.8450    0.0000 O.3     1  UNL1       -0.3431
      4 O          10.3312   -1.3450    0.0000 O.3     1  UNL1       -0.4562
      5 O           6.8671   -3.3450    0.0000 O.3     1  UNL1       -0.3865
      6 O           8.5991   -4.3450    0.0000 O.3     1  UNL1       -0.3864
      7 O          10.3312   -3.3450    0.0000 O.3     1  UNL1       -0.3829
      8 O           6.0010    0.1550    0.0000 O.3     1  UNL1       -0.3841
      9 O           4.2690    1.1550    0.0000 O.3     1  UNL1       -0.3864
     10 O           2.5369    0.1550    0.0000 O.3     1  UNL1       -0.3866
     11 O          12.0911    1.6897    0.0000 O.3     1  UNL1       -0.4826
     12 O           8.5991   -0.3450    0.0000 O.3     1  UNL1       -0.5009
     13 O           8.5991    1.6550    0.0000 O.3     1  UNL1       -0.5029
     14 O          12.0796   -1.3796    0.0000 O.2     1  UNL1       -0.2917
     15 O          16.4536    3.1892    0.0000 O.3     1  UNL1       -0.5068
     16 C           7.7331   -1.8450    0.0000 C.3     1  UNL1        0.1144
     17 C           7.7331   -2.8450    0.0000 C.3     1  UNL1        0.1120
     18 C           8.5991   -3.3450    0.0000 C.3     1  UNL1        0.1152
     19 C           9.4651   -2.8450    0.0000 C.3     1  UNL1        0.1454
     20 C           9.4651   -1.8450    0.0000 C.3     1  UNL1        0.2310
     21 C           5.1350   -0.3450    0.0000 C.3     1  UNL1        0.1341
     22 C           5.1350   -1.3450    0.0000 C.3     1  UNL1        0.1879
     23 C           4.2690    0.1550    0.0000 C.3     1  UNL1        0.1140
     24 C           6.8671   -1.3450    0.0000 C.3     1  UNL1        0.0796
     25 C           3.4030   -0.3450    0.0000 C.3     1  UNL1        0.1095
     26 C           3.4030   -1.3450    0.0000 C.3     1  UNL1        0.0873
     27 C           2.5369   -1.8450    0.0000 C.3     1  UNL1       -0.0361
     28 C          10.3312   -0.3450    0.0000 C.ar    1  UNL1        0.1828
     29 C          11.1972    0.1550    0.0000 C.ar    1  UNL1        0.1049
     30 C          11.1972    1.1550    0.0000 C.ar    1  UNL1        0.1426
     31 C          12.9972    1.1758    0.0000 C.3     1  UNL1        0.1322
     32 C           9.4651    0.1550    0.0000 C.ar    1  UNL1        0.2022
     33 C          12.9972    0.1342    0.0000 C.3     1  UNL1        0.0520
     34 C          12.0911   -0.3797    0.0000 C.2     1  UNL1        0.1742
     35 C          10.3312    1.6550    0.0000 C.ar    1  UNL1        0.0439
     36 C           9.4651    1.1550    0.0000 C.ar    1  UNL1        0.1691
     37 C          10.3312    2.6550    0.0000 C.3     1  UNL1       -0.0022
     38 C          13.8613    1.6792    0.0000 C.ar    1  UNL1       -0.0067
     39 C           9.4651    3.1550    0.0000 C.2     1  UNL1       -0.0807
     40 C          14.7292    1.1825    0.0000 C.ar    1  UNL1       -0.0516
     41 C          13.8574    2.6791    0.0000 C.ar    1  UNL1       -0.0516
     42 C          15.5933    1.6858    0.0000 C.ar    1  UNL1       -0.0198
     43 C          14.7215    3.1825    0.0000 C.ar    1  UNL1       -0.0198
     44 C           9.4651    4.1550    0.0000 C.2     1  UNL1       -0.0793
     45 C          15.5895    2.6858    0.0000 C.ar    1  UNL1        0.1169
     46 C           8.5991    4.6550    0.0000 C.3     1  UNL1       -0.0440
     47 C          10.3312    4.6550    0.0000 C.3     1  UNL1       -0.0440
     48 H           7.7331   -1.2250    0.0000 H       1  UNL1        0.0647
     49 H           7.7331   -3.4650    0.0000 H       1  UNL1        0.0647
     50 H           9.1360   -3.6550    0.0000 H       1  UNL1        0.0648
     51 H          10.0021   -2.5350    0.0000 H       1  UNL1        0.0683
     52 H           9.4651   -1.2250    0.0000 H       1  UNL1        0.1084
     53 H           5.1350    0.2750    0.0000 H       1  UNL1        0.0671
     54 H           5.6720   -1.0350    0.0000 H       1  UNL1        0.0937
     55 H           3.7320    0.4650    0.0000 H       1  UNL1        0.0648
     56 H           7.2656   -0.8701    0.0000 H       1  UNL1        0.0587
     57 H           6.4685   -0.8701    0.0000 H       1  UNL1        0.0587
     58 H           3.9650    0.2750    0.0000 H       1  UNL1        0.0646
     59 H           3.4030   -1.9650    0.0000 H       1  UNL1        0.0621
     60 H           2.2269   -1.3081    0.0000 H       1  UNL1        0.0255
     61 H           2.0000   -2.1550    0.0000 H       1  UNL1        0.0255
     62 H           2.8469   -2.3819    0.0000 H       1  UNL1        0.0255
     63 H           6.8671   -3.9650    0.0000 H       1  UNL1        0.2100
     64 H           8.0622   -4.6550    0.0000 H       1  UNL1        0.2100
     65 H          10.3312   -3.9650    0.0000 H       1  UNL1        0.2102
     66 H           6.0010    0.7750    0.0000 H       1  UNL1        0.2101
     67 H           3.7320    1.4650    0.0000 H       1  UNL1        0.2100
     68 H           2.0000   -0.1550    0.0000 H       1  UNL1        0.2100
     69 H          13.5347    0.8669    0.0000 H       1  UNL1        0.0789
     70 H          13.2063   -0.4495    0.0000 H       1  UNL1        0.0385
     71 H          13.6081    0.2403    0.0000 H       1  UNL1        0.0385
     72 H          10.9417    2.5473    0.0000 H       1  UNL1        0.0358
     73 H          10.5432    3.2376    0.0000 H       1  UNL1        0.0358
     74 H           8.0622   -0.0350    0.0000 H       1  UNL1        0.2924
     75 H           8.9282    2.8450    0.0000 H       1  UNL1        0.0575
     76 H          14.7316    0.5625    0.0000 H       1  UNL1        0.0623
     77 H          13.3193    2.9871    0.0000 H       1  UNL1        0.0623
     78 H           8.5991    2.2750    0.0000 H       1  UNL1        0.2923
     79 H          16.1315    1.3779    0.0000 H       1  UNL1        0.0654
     80 H          14.7191    3.8025    0.0000 H       1  UNL1        0.0654
     81 H          10.6412    4.1181    0.0000 H       1  UNL1        0.0274
     82 H          10.8681    4.9650    0.0000 H       1  UNL1        0.0274
     83 H          10.0212    5.1919    0.0000 H       1  UNL1        0.0274
     84 H           8.9091    5.1919    0.0000 H       1  UNL1        0.0274
     85 H           8.0622    4.9650    0.0000 H       1  UNL1        0.0274
     86 H           8.2891    4.1181    0.0000 H       1  UNL1        0.0274
     87 H          16.9917    2.8812    0.0000 H       1  UNL1        0.2921
@<TRIPOS>BOND
     1     1    16    1
     2     1    20    1
     3    22     2    1
     4     2    24    1
     5     3    22    1
     6     3    26    1
     7    20     4    1
     8     4    28    1
     9    17     5    1
    10     5    63    1
    11    18     6    1
    12     6    64    1
    13    19     7    1
    14     7    65    1
    15    21     8    1
    16     8    66    1
    17    23     9    1
    18     9    67    1
    19    25    10    1
    20    10    68    1
    21    11    30    1
    22    11    31    1
    23    12    32    1
    24    12    74    1
    25    13    36    1
    26    13    78    1
    27    14    34    2
    28    15    45    1
    29    15    87    1
    30    16    17    1
    31    16    24    1
    32    16    48    1
    33    17    18    1
    34    17    49    1
    35    18    19    1
    36    18    50    1
    37    19    20    1
    38    19    51    1
    39    20    52    1
    40    21    22    1
    41    21    23    1
    42    21    53    1
    43    22    54    1
    44    23    25    1
    45    23    55    1
    46    24    56    1
    47    24    57    1
    48    25    26    1
    49    25    58    1
    50    26    27    1
    51    26    59    1
    52    27    60    1
    53    27    61    1
    54    27    62    1
    55    28    29   ar
    56    28    32   ar
    57    29    30   ar
    58    29    34    1
    59    30    35   ar
    60    31    33    1
    61    31    38    1
    62    31    69    1
    63    32    36   ar
    64    33    34    1
    65    33    70    1
    66    33    71    1
    67    35    36   ar
    68    35    37    1
    69    37    39    1
    70    37    72    1
    71    37    73    1
    72    38    40   ar
    73    38    41   ar
    74    39    44    2
    75    39    75    1
    76    40    42   ar
    77    40    76    1
    78    41    43   ar
    79    41    77    1
    80    42    45   ar
    81    42    79    1
    82    43    45   ar
    83    43    80    1
    84    44    46    1
    85    44    47    1
    86    46    84    1
    87    46    85    1
    88    46    86    1
    89    47    81    1
    90    47    82    1
    91    47    83    1
