@<TRIPOS>MOLECULE
IMPHY003091
 82 86 0 0 0
SMALL
GASTEIGER

@<TRIPOS>ATOM
      1 O           6.1847   -3.4047    0.0000 O.3     1  UNL1       -0.3915
      2 O           2.5357   -2.3878    0.0000 O.3     1  UNL1       -0.3912
      3 C           7.0628   -0.8354    0.0000 C.3     1  UNL1       -0.0170
      4 C           6.1968   -0.3354    0.0000 C.3     1  UNL1       -0.0256
      5 C           5.2868   -0.8423    0.0000 C.3     1  UNL1       -0.0226
      6 C           7.9288   -0.3354    0.0000 C.3     1  UNL1       -0.0050
      7 C           5.2787   -1.8839    0.0000 C.3     1  UNL1       -0.0018
      8 C           7.0789   -1.8769    0.0000 C.3     1  UNL1       -0.0201
      9 C           6.1808   -2.4047    0.0000 C.3     1  UNL1        0.0597
     10 C           7.9288    0.6646    0.0000 C.2     1  UNL1       -0.0634
     11 C           4.3433   -2.4336    0.0000 C.3     1  UNL1       -0.0033
     12 C           8.8228    1.1992    0.0000 C.3     1  UNL1       -0.0135
     13 C           9.7288    0.6854    0.0000 C.3     1  UNL1       -0.0255
     14 C           6.1968    0.6646    0.0000 C.3     1  UNL1       -0.0306
     15 C           8.8228   -0.8701    0.0000 C.3     1  UNL1       -0.0429
     16 C           4.3599   -0.2782    0.0000 C.3     1  UNL1       -0.0446
     17 C           9.7288   -0.3562    0.0000 C.3     1  UNL1       -0.0463
     18 C           7.7056   -1.6015    0.0000 C.3     1  UNL1       -0.0584
     19 C           7.0628    1.1646    0.0000 C.2     1  UNL1       -0.0836
     20 C           3.4037   -1.8911    0.0000 C.3     1  UNL1        0.0607
     21 C           5.2945    0.1577    0.0000 C.3     1  UNL1       -0.0589
     22 C           3.4120   -0.8061    0.0000 C.3     1  UNL1       -0.0258
     23 C           8.2709   -1.2751    0.0000 C.3     1  UNL1       -0.0553
     24 C           8.7977    2.2839    0.0000 C.3     1  UNL1       -0.0408
     25 C          10.6726    1.2206    0.0000 C.3     1  UNL1       -0.0466
     26 C           9.7288    2.8409    0.0000 C.3     1  UNL1       -0.0343
     27 C          10.6726    2.3056    0.0000 C.3     1  UNL1       -0.0473
     28 C           3.8467   -3.3015    0.0000 C.3     1  UNL1       -0.0571
     29 C           4.8466   -3.2977    0.0000 C.3     1  UNL1       -0.0571
     30 C          10.5987    0.1921    0.0000 C.3     1  UNL1       -0.0590
     31 C          10.2188    3.7126    0.0000 C.3     1  UNL1       -0.0598
     32 C           9.2188    3.7010    0.0000 C.3     1  UNL1       -0.0598
     33 H           6.9329    0.0896    0.0000 H       1  UNL1        0.0315
     34 H           5.2820   -2.7339    0.0000 H       1  UNL1        0.0337
     35 H           7.2969   -2.4573    0.0000 H       1  UNL1        0.0296
     36 H           7.6880   -1.7614    0.0000 H       1  UNL1        0.0296
     37 H           6.7195   -2.7116    0.0000 H       1  UNL1        0.0596
     38 H           9.5522    1.6355    0.0000 H       1  UNL1        0.0351
     39 H           5.9847    1.2472    0.0000 H       1  UNL1        0.0310
     40 H           5.5862    0.5569    0.0000 H       1  UNL1        0.0310
     41 H           8.4182   -1.3399    0.0000 H       1  UNL1        0.0274
     42 H           9.2164   -1.3491    0.0000 H       1  UNL1        0.0274
     43 H           4.7681    0.1885    0.0000 H       1  UNL1        0.0272
     44 H           3.9700    0.2038    0.0000 H       1  UNL1        0.0272
     45 H           9.9379   -0.9399    0.0000 H       1  UNL1        0.0271
     46 H          10.3397   -0.2501    0.0000 H       1  UNL1        0.0271
     47 H           7.2306   -2.0000    0.0000 H       1  UNL1        0.0235
     48 H           8.1041   -2.0764    0.0000 H       1  UNL1        0.0235
     49 H           8.1805   -1.2029    0.0000 H       1  UNL1        0.0235
     50 H           7.0628    1.7846    0.0000 H       1  UNL1        0.0572
     51 H           3.4025   -2.5111    0.0000 H       1  UNL1        0.0599
     52 H           5.9145    0.1529    0.0000 H       1  UNL1        0.0235
     53 H           5.2993    0.7777    0.0000 H       1  UNL1        0.0235
     54 H           4.6745    0.1625    0.0000 H       1  UNL1        0.0235
     55 H           3.2075   -0.2209    0.0000 H       1  UNL1        0.0290
     56 H           2.8004   -0.9075    0.0000 H       1  UNL1        0.0290
     57 H           7.6884   -1.4872    0.0000 H       1  UNL1        0.0238
     58 H           8.4830   -1.8577    0.0000 H       1  UNL1        0.0238
     59 H           8.8535   -1.0630    0.0000 H       1  UNL1        0.0238
     60 H           8.5752    2.8626    0.0000 H       1  UNL1        0.0276
     61 H           8.1894    2.1638    0.0000 H       1  UNL1        0.0276
     62 H          10.8817    0.6369    0.0000 H       1  UNL1        0.0271
     63 H          11.2835    1.3267    0.0000 H       1  UNL1        0.0271
     64 H          11.2835    2.1995    0.0000 H       1  UNL1        0.0271
     65 H          10.8817    2.8893    0.0000 H       1  UNL1        0.0271
     66 H           3.3085   -2.9936    0.0000 H       1  UNL1        0.0236
     67 H           3.5387   -3.8397    0.0000 H       1  UNL1        0.0236
     68 H           4.3848   -3.6095    0.0000 H       1  UNL1        0.0236
     69 H           4.3109   -3.6098    0.0000 H       1  UNL1        0.0236
     70 H           5.1587   -3.8334    0.0000 H       1  UNL1        0.0236
     71 H           5.3824   -2.9856    0.0000 H       1  UNL1        0.0236
     72 H          10.2928   -0.3472    0.0000 H       1  UNL1        0.0235
     73 H          11.1380   -0.1138    0.0000 H       1  UNL1        0.0235
     74 H          10.9045    0.7314    0.0000 H       1  UNL1        0.0235
     75 H           6.7228   -3.7126    0.0000 H       1  UNL1        0.2098
     76 H          10.7593    3.4088    0.0000 H       1  UNL1        0.0235
     77 H          10.5226    4.2531    0.0000 H       1  UNL1        0.0235
     78 H           9.6783    4.0164    0.0000 H       1  UNL1        0.0235
     79 H           9.7522    4.0172    0.0000 H       1  UNL1        0.0235
     80 H           8.9027    4.2344    0.0000 H       1  UNL1        0.0235
     81 H           8.6855    3.3849    0.0000 H       1  UNL1        0.0235
     82 H           2.0000   -2.0757    0.0000 H       1  UNL1        0.2098
@<TRIPOS>BOND
     1     9     1    1
     2     1    75    1
     3    20     2    1
     4     2    82    1
     5     3     4    1
     6     3     6    1
     7     3     8    1
     8     3    18    1
     9     4     5    1
    10     4    14    1
    11     4    33    1
    12     5     7    1
    13     5    16    1
    14     5    21    1
    15     6    10    1
    16     6    15    1
    17     6    23    1
    18     7     9    1
    19     7    11    1
    20     7    34    1
    21     8     9    1
    22     8    35    1
    23     8    36    1
    24     9    37    1
    25    10    12    1
    26    10    19    2
    27    11    20    1
    28    11    28    1
    29    11    29    1
    30    12    13    1
    31    12    24    1
    32    12    38    1
    33    13    17    1
    34    13    25    1
    35    13    30    1
    36    14    19    1
    37    14    39    1
    38    14    40    1
    39    15    17    1
    40    15    41    1
    41    15    42    1
    42    16    22    1
    43    16    43    1
    44    16    44    1
    45    17    45    1
    46    17    46    1
    47    18    47    1
    48    18    48    1
    49    18    49    1
    50    19    50    1
    51    20    22    1
    52    20    51    1
    53    21    52    1
    54    21    53    1
    55    21    54    1
    56    22    55    1
    57    22    56    1
    58    23    57    1
    59    23    58    1
    60    23    59    1
    61    24    26    1
    62    24    60    1
    63    24    61    1
    64    25    27    1
    65    25    62    1
    66    25    63    1
    67    26    27    1
    68    26    31    1
    69    26    32    1
    70    27    64    1
    71    27    65    1
    72    28    66    1
    73    28    67    1
    74    28    68    1
    75    29    69    1
    76    29    70    1
    77    29    71    1
    78    30    72    1
    79    30    73    1
    80    30    74    1
    81    31    76    1
    82    31    77    1
    83    31    78    1
    84    32    79    1
    85    32    80    1
    86    32    81    1
