@<TRIPOS>MOLECULE
IMPHY004990
 38 40 0 0 0
SMALL
GASTEIGER

@<TRIPOS>ATOM
      1 O           6.0682   -0.1754    0.0000 O.2     1  UNL1       -0.4507
      2 O           7.8003    1.8246    0.0000 O.3     1  UNL1       -0.4883
      3 O           4.3198    2.8592    0.0000 O.3     1  UNL1       -0.5058
      4 O           6.0682    2.8246    0.0000 O.2     1  UNL1       -0.2830
      5 O           8.6663   -2.6754    0.0000 O.3     1  UNL1       -0.4914
      6 O           2.5381   -0.1995    0.0000 O.3     1  UNL1       -0.5065
      7 O          10.3984   -1.6754    0.0000 O.3     1  UNL1       -0.5033
      8 C           5.2022    1.3246    0.0000 C.ar    1  UNL1        0.1092
      9 C           6.9343    0.3246    0.0000 C.ar    1  UNL1        0.1809
     10 C           5.2022    0.3246    0.0000 C.ar    1  UNL1        0.1465
     11 C           7.8003   -0.1754    0.0000 C.ar    1  UNL1        0.0247
     12 C           6.9343    1.3246    0.0000 C.ar    1  UNL1        0.2107
     13 C           6.0682    1.8246    0.0000 C.ar    1  UNL1        0.2381
     14 C           4.3083    1.8593    0.0000 C.ar    1  UNL1        0.1348
     15 C           4.3083   -0.2101    0.0000 C.ar    1  UNL1        0.0231
     16 C           7.8003   -1.1754    0.0000 C.ar    1  UNL1       -0.0055
     17 C           8.6663    0.3246    0.0000 C.ar    1  UNL1       -0.0473
     18 C           3.4022    0.3038    0.0000 C.ar    1  UNL1        0.1239
     19 C           3.4022    1.3454    0.0000 C.ar    1  UNL1        0.0223
     20 C           8.6663   -1.6754    0.0000 C.ar    1  UNL1        0.1619
     21 C           9.5323   -0.1754    0.0000 C.ar    1  UNL1       -0.0159
     22 C           9.5323   -1.1754    0.0000 C.ar    1  UNL1        0.1585
     23 C           7.8003    2.8246    0.0000 C.3     1  UNL1        0.0791
     24 C           7.8003   -3.1754    0.0000 C.3     1  UNL1        0.0790
     25 H           4.3154   -0.8300    0.0000 H       1  UNL1        0.0691
     26 H           7.2634   -1.4854    0.0000 H       1  UNL1        0.0662
     27 H           8.6663    0.9446    0.0000 H       1  UNL1        0.0626
     28 H           2.8665    1.6575    0.0000 H       1  UNL1        0.0691
     29 H          10.0693    0.1346    0.0000 H       1  UNL1        0.0655
     30 H           3.7865    3.1754    0.0000 H       1  UNL1        0.2922
     31 H           8.4203    2.8246    0.0000 H       1  UNL1        0.0660
     32 H           7.8003    3.4446    0.0000 H       1  UNL1        0.0660
     33 H           7.1803    2.8246    0.0000 H       1  UNL1        0.0660
     34 H           2.0000    0.1084    0.0000 H       1  UNL1        0.2921
     35 H          10.9353   -1.3654    0.0000 H       1  UNL1        0.2923
     36 H           7.4903   -2.6385    0.0000 H       1  UNL1        0.0660
     37 H           7.2634   -3.4854    0.0000 H       1  UNL1        0.0660
     38 H           8.1103   -3.7123    0.0000 H       1  UNL1        0.0660
@<TRIPOS>BOND
     1     1     9   ar
     2     1    10   ar
     3     2    12    1
     4     2    23    1
     5     3    14    1
     6     3    30    1
     7     4    13    2
     8     5    20    1
     9     5    24    1
    10     6    18    1
    11     6    34    1
    12     7    22    1
    13     7    35    1
    14     8    10   ar
    15     8    13   ar
    16     8    14   ar
    17     9    11    1
    18     9    12   ar
    19    10    15   ar
    20    11    16   ar
    21    11    17   ar
    22    12    13   ar
    23    14    19   ar
    24    15    18   ar
    25    15    25    1
    26    16    20   ar
    27    16    26    1
    28    17    21   ar
    29    17    27    1
    30    18    19   ar
    31    19    28    1
    32    20    22   ar
    33    21    22   ar
    34    21    29    1
    35    23    31    1
    36    23    32    1
    37    23    33    1
    38    24    36    1
    39    24    37    1
    40    24    38    1
