@<TRIPOS>MOLECULE
IMPHY008288
 202 212 0 0 0
SMALL
GASTEIGER

@<TRIPOS>ATOM
      1 O           8.6184   -6.1263    0.0000 O.3     1  UNL1       -0.3449
      2 O           5.8243    0.9523    0.0000 O.3     1  UNL1       -0.3906
      3 O           6.8645    3.1532    0.0000 O.3     1  UNL1       -0.4318
      4 O           5.8703    2.3383    0.0000 O.2     1  UNL1       -0.2500
      5 O           6.8863   -6.1263    0.0000 O.3     1  UNL1       -0.3405
      6 O           8.6184   -8.1263    0.0000 O.3     1  UNL1       -0.3378
      7 O           5.1326    3.1732    0.0000 O.3     1  UNL1       -0.3312
      8 O           6.8863   -9.1263    0.0000 O.3     1  UNL1       -0.3864
      9 O           5.1542   -8.1263    0.0000 O.3     1  UNL1       -0.3402
     10 O           6.8877    5.1530    0.0000 O.3     1  UNL1       -0.3366
     11 O           5.1673    6.1730    0.0000 O.3     1  UNL1       -0.3863
     12 O           9.4844   -6.6263    0.0000 O.3     1  UNL1       -0.3431
     13 O           5.1542   -5.1263    0.0000 O.3     1  UNL1       -0.3924
     14 O           3.4238    5.1931    0.0000 O.3     1  UNL1       -0.3865
     15 O           6.0203   -9.6263    0.0000 O.3     1  UNL1       -0.3461
     16 O           6.0390    6.6629    0.0000 O.3     1  UNL1       -0.3431
     17 O          10.3504   -9.1263    0.0000 O.3     1  UNL1       -0.3841
     18 O           2.5405    3.7032    0.0000 O.3     1  UNL1       -0.3924
     19 O          12.0824   -8.1263    0.0000 O.3     1  UNL1       -0.3864
     20 O           3.4222   -9.1263    0.0000 O.3     1  UNL1       -0.3841
     21 O          12.0824   -6.1263    0.0000 O.3     1  UNL1       -0.3866
     22 O           8.6312    6.1329    0.0000 O.3     1  UNL1       -0.3841
     23 O           3.4222  -11.1263    0.0000 O.3     1  UNL1       -0.3864
     24 O           8.6543    8.1328    0.0000 O.3     1  UNL1       -0.3864
     25 O           6.9339    9.1528    0.0000 O.3     1  UNL1       -0.3402
     26 O           5.1542  -12.1263    0.0000 O.3     1  UNL1       -0.3869
     27 O           8.6659    9.1327    0.0000 O.3     1  UNL1       -0.3405
     28 O           6.9570   11.1526    0.0000 O.3     1  UNL1       -0.3841
     29 O           8.7006   12.1325    0.0000 O.3     1  UNL1       -0.3864
     30 O          10.4209   11.1126    0.0000 O.3     1  UNL1       -0.3865
     31 O          11.2695    9.6026    0.0000 O.3     1  UNL1       -0.3924
     32 C           7.7173   -1.4261    0.0000 C.3     1  UNL1       -0.0193
     33 C           8.5814   -1.9294    0.0000 C.3     1  UNL1       -0.0257
     34 C           8.5934   -2.9710    0.0000 C.3     1  UNL1       -0.0250
     35 C           7.7211   -0.4261    0.0000 C.3     1  UNL1       -0.0028
     36 C           7.6934   -3.4952    0.0000 C.3     1  UNL1       -0.0278
     37 C           6.8053   -1.9294    0.0000 C.3     1  UNL1       -0.0463
     38 C           6.7933   -2.9710    0.0000 C.3     1  UNL1       -0.0486
     39 C           7.6808   -4.5802    0.0000 C.3     1  UNL1       -0.0052
     40 C           8.5891    0.0706    0.0000 C.2     1  UNL1       -0.0627
     41 C           8.6092    1.1120    0.0000 C.3     1  UNL1       -0.0007
     42 C           9.4493   -1.4327    0.0000 C.3     1  UNL1       -0.0306
     43 C           9.5433   -3.4952    0.0000 C.3     1  UNL1       -0.0447
     44 C           6.8131    0.0843    0.0000 C.3     1  UNL1       -0.0162
     45 C           7.7132    1.6432    0.0000 C.3     1  UNL1        0.1000
     46 C           6.8091    1.1259    0.0000 C.3     1  UNL1        0.0723
     47 C           6.7332   -1.2486    0.0000 C.3     1  UNL1       -0.0585
     48 C           8.6184   -5.1263    0.0000 C.3     1  UNL1        0.0672
     49 C           9.4532   -0.4328    0.0000 C.2     1  UNL1       -0.0836
     50 C           9.4575   -2.4676    0.0000 C.3     1  UNL1       -0.0590
     51 C           9.5559   -4.5802    0.0000 C.3     1  UNL1       -0.0255
     52 C           6.7357   -0.5959    0.0000 C.3     1  UNL1       -0.0552
     53 C           9.5631    1.6290    0.0000 C.3     1  UNL1       -0.0402
     54 C           7.7090    2.7282    0.0000 C.3     1  UNL1       -0.0338
     55 C           9.5840    2.7138    0.0000 C.3     1  UNL1       -0.0343
     56 C           6.6808   -4.5725    0.0000 C.3     1  UNL1       -0.0572
     57 C           7.1742   -5.4423    0.0000 C.3     1  UNL1       -0.0572
     58 C           8.6507    3.2671    0.0000 C.3     1  UNL1       -0.0467
     59 C           6.8530    2.1532    0.0000 C.2     1  UNL1        0.3186
     60 C          10.0973    3.5720    0.0000 C.3     1  UNL1       -0.0598
     61 C          10.5839    2.6984    0.0000 C.3     1  UNL1       -0.0598
     62 C           7.7523   -6.6263    0.0000 C.3     1  UNL1        0.1886
     63 C           7.7523   -7.6263    0.0000 C.3     1  UNL1        0.1406
     64 C           6.0043    3.6631    0.0000 C.3     1  UNL1        0.2341
     65 C           6.8863   -8.1263    0.0000 C.3     1  UNL1        0.1148
     66 C           6.0203   -6.6263    0.0000 C.3     1  UNL1        0.1134
     67 C           6.0203   -7.6263    0.0000 C.3     1  UNL1        0.1184
     68 C           6.0159    4.6631    0.0000 C.3     1  UNL1        0.1520
     69 C           5.1557    5.1730    0.0000 C.3     1  UNL1        0.1155
     70 C           4.2724    3.6832    0.0000 C.3     1  UNL1        0.1140
     71 C           5.1542   -6.1263    0.0000 C.3     1  UNL1        0.0730
     72 C           4.2840    4.6831    0.0000 C.3     1  UNL1        0.1120
     73 C           9.4844   -7.6263    0.0000 C.3     1  UNL1        0.1884
     74 C          10.3504   -8.1263    0.0000 C.3     1  UNL1        0.1341
     75 C           3.4007    3.1932    0.0000 C.3     1  UNL1        0.0731
     76 C           5.1542   -9.1263    0.0000 C.3     1  UNL1        0.1880
     77 C           6.8992    6.1530    0.0000 C.3     1  UNL1        0.1885
     78 C          11.2164   -7.6263    0.0000 C.3     1  UNL1        0.1140
     79 C          10.3504   -6.1263    0.0000 C.3     1  UNL1        0.0873
     80 C           4.2882   -9.6263    0.0000 C.3     1  UNL1        0.1341
     81 C          11.2164   -6.6263    0.0000 C.3     1  UNL1        0.1095
     82 C           7.7710    6.6429    0.0000 C.3     1  UNL1        0.1341
     83 C           4.2882  -10.6263    0.0000 C.3     1  UNL1        0.1137
     84 C           7.7825    7.6428    0.0000 C.3     1  UNL1        0.1143
     85 C           6.0506    7.6629    0.0000 C.3     1  UNL1        0.0877
     86 C           6.9224    8.1528    0.0000 C.3     1  UNL1        0.1160
     87 C          10.3504   -5.1263    0.0000 C.3     1  UNL1       -0.0361
     88 C           6.0203  -10.6263    0.0000 C.3     1  UNL1        0.0792
     89 C           5.1542  -11.1263    0.0000 C.3     1  UNL1        0.1069
     90 C           5.1904    8.1728    0.0000 C.3     1  UNL1       -0.0361
     91 C           7.8057    9.6427    0.0000 C.3     1  UNL1        0.1884
     92 C           7.8172   10.6426    0.0000 C.3     1  UNL1        0.1341
     93 C           8.6890   11.1326    0.0000 C.3     1  UNL1        0.1141
     94 C           9.5376    9.6227    0.0000 C.3     1  UNL1        0.1130
     95 C           9.5492   10.6226    0.0000 C.3     1  UNL1        0.1119
     96 C          10.3978    9.1127    0.0000 C.3     1  UNL1        0.0730
     97 H           9.3191   -2.3516    0.0000 H       1  UNL1        0.0315
     98 H           6.9540   -3.9146    0.0000 H       1  UNL1        0.0312
     99 H           6.6030   -1.3433    0.0000 H       1  UNL1        0.0271
    100 H           6.1933   -2.0284    0.0000 H       1  UNL1        0.0271
    101 H           6.1837   -2.8578    0.0000 H       1  UNL1        0.0268
    102 H           6.5775   -3.5522    0.0000 H       1  UNL1        0.0268
    103 H           9.3353    0.6701    0.0000 H       1  UNL1        0.0357
    104 H           9.6591   -2.0162    0.0000 H       1  UNL1        0.0310
    105 H          10.0603   -1.3274    0.0000 H       1  UNL1        0.0310
    106 H          10.1554   -3.5943    0.0000 H       1  UNL1        0.0271
    107 H           9.7456   -2.9092    0.0000 H       1  UNL1        0.0271
    108 H           6.2018    0.1880    0.0000 H       1  UNL1        0.0299
    109 H           6.6063   -0.5002    0.0000 H       1  UNL1        0.0299
    110 H           6.5982    1.7089    0.0000 H       1  UNL1        0.0605
    111 H           6.8432   -0.6385    0.0000 H       1  UNL1        0.0235
    112 H           6.1230   -1.1386    0.0000 H       1  UNL1        0.0235
    113 H           6.6231   -1.8588    0.0000 H       1  UNL1        0.0235
    114 H           8.0808   -5.4352    0.0000 H       1  UNL1        0.0602
    115 H           9.9913   -0.1248    0.0000 H       1  UNL1        0.0572
    116 H           9.7696   -3.0034    0.0000 H       1  UNL1        0.0235
    117 H           9.9932   -2.1556    0.0000 H       1  UNL1        0.0235
    118 H           9.1454   -1.9319    0.0000 H       1  UNL1        0.0235
    119 H           9.7717   -5.1614    0.0000 H       1  UNL1        0.0290
    120 H          10.1655   -4.4670    0.0000 H       1  UNL1        0.0290
    121 H           6.6304    0.0151    0.0000 H       1  UNL1        0.0238
    122 H           6.1247   -0.7012    0.0000 H       1  UNL1        0.0238
    123 H           6.8410   -1.2069    0.0000 H       1  UNL1        0.0238
    124 H           9.7608    1.0414    0.0000 H       1  UNL1        0.0276
    125 H          10.1759    1.7233    0.0000 H       1  UNL1        0.0276
    126 H           7.4977    3.3111    0.0000 H       1  UNL1        0.0277
    127 H           7.0985    2.6198    0.0000 H       1  UNL1        0.0277
    128 H           6.6396   -5.1282    0.0000 H       1  UNL1        0.0236
    129 H           6.8600   -5.9768    0.0000 H       1  UNL1        0.0236
    130 H           7.7087   -5.7564    0.0000 H       1  UNL1        0.0236
    131 H           6.6856   -3.9525    0.0000 H       1  UNL1        0.0236
    132 H           6.0609   -4.5677    0.0000 H       1  UNL1        0.0236
    133 H           6.6761   -5.1924    0.0000 H       1  UNL1        0.0236
    134 H           9.0535    3.7384    0.0000 H       1  UNL1        0.0271
    135 H           8.2552    3.7446    0.0000 H       1  UNL1        0.0271
    136 H           5.6122    0.3696    0.0000 H       1  UNL1        0.2098
    137 H          10.6294    3.2537    0.0000 H       1  UNL1        0.0235
    138 H          10.4155    4.1041    0.0000 H       1  UNL1        0.0235
    139 H           9.5652    3.8902    0.0000 H       1  UNL1        0.0235
    140 H          10.5743    2.0784    0.0000 H       1  UNL1        0.0235
    141 H          11.2038    2.6888    0.0000 H       1  UNL1        0.0235
    142 H          10.5934    3.3183    0.0000 H       1  UNL1        0.0235
    143 H           8.2893   -6.9363    0.0000 H       1  UNL1        0.0938
    144 H           7.7523   -8.2463    0.0000 H       1  UNL1        0.0675
    145 H           5.9972    3.0432    0.0000 H       1  UNL1        0.1085
    146 H           6.3494   -8.4363    0.0000 H       1  UNL1        0.0648
    147 H           6.0203   -6.0063    0.0000 H       1  UNL1        0.0647
    148 H           5.4833   -7.3163    0.0000 H       1  UNL1        0.0651
    149 H           6.5492    4.3469    0.0000 H       1  UNL1        0.0687
    150 H           4.6224    5.4892    0.0000 H       1  UNL1        0.0648
    151 H           4.2652    3.0632    0.0000 H       1  UNL1        0.0647
    152 H           4.5437   -6.0186    0.0000 H       1  UNL1        0.0584
    153 H           4.9422   -6.7089    0.0000 H       1  UNL1        0.0584
    154 H           3.7435    4.3793    0.0000 H       1  UNL1        0.0647
    155 H           8.9474   -7.3163    0.0000 H       1  UNL1        0.0938
    156 H           7.4232   -9.4363    0.0000 H       1  UNL1        0.2100
    157 H           9.8135   -8.4363    0.0000 H       1  UNL1        0.0671
    158 H           2.9967    2.7229    0.0000 H       1  UNL1        0.0584
    159 H           3.7937    2.7137    0.0000 H       1  UNL1        0.0584
    160 H           4.6173   -8.8163    0.0000 H       1  UNL1        0.0937
    161 H           6.3588    5.8492    0.0000 H       1  UNL1        0.0938
    162 H           4.6340    6.4892    0.0000 H       1  UNL1        0.2100
    163 H           4.6173   -4.8163    0.0000 H       1  UNL1        0.2095
    164 H           3.4310    5.8130    0.0000 H       1  UNL1        0.2100
    165 H          11.7534   -7.3163    0.0000 H       1  UNL1        0.0648
    166 H           9.8135   -5.8163    0.0000 H       1  UNL1        0.0621
    167 H           4.8503   -9.0063    0.0000 H       1  UNL1        0.0671
    168 H          11.2164   -6.0063    0.0000 H       1  UNL1        0.0646
    169 H           7.7638    6.0229    0.0000 H       1  UNL1        0.0671
    170 H          10.8873   -9.4363    0.0000 H       1  UNL1        0.2101
    171 H           2.0000    3.3994    0.0000 H       1  UNL1        0.2095
    172 H           4.2882  -11.2463    0.0000 H       1  UNL1        0.0647
    173 H           7.7897    8.2628    0.0000 H       1  UNL1        0.0648
    174 H           5.5101    7.3591    0.0000 H       1  UNL1        0.0621
    175 H           6.3890    8.4690    0.0000 H       1  UNL1        0.0650
    176 H          10.9704   -5.1263    0.0000 H       1  UNL1        0.0255
    177 H          10.3504   -4.5063    0.0000 H       1  UNL1        0.0255
    178 H           9.7304   -5.1263    0.0000 H       1  UNL1        0.0255
    179 H           6.2323  -11.2089    0.0000 H       1  UNL1        0.0587
    180 H           6.6308  -10.5186    0.0000 H       1  UNL1        0.0587
    181 H           5.6912  -11.4363    0.0000 H       1  UNL1        0.0643
    182 H          12.6194   -7.8163    0.0000 H       1  UNL1        0.2100
    183 H           2.8853   -9.4363    0.0000 H       1  UNL1        0.2101
    184 H          12.6194   -6.4363    0.0000 H       1  UNL1        0.2100
    185 H           9.1716    6.4367    0.0000 H       1  UNL1        0.2101
    186 H           5.5066    8.7062    0.0000 H       1  UNL1        0.0255
    187 H           4.6571    8.4890    0.0000 H       1  UNL1        0.0255
    188 H           4.8742    7.6395    0.0000 H       1  UNL1        0.0255
    189 H           3.4222  -11.7463    0.0000 H       1  UNL1        0.2100
    190 H           9.1876    7.8166    0.0000 H       1  UNL1        0.2100
    191 H           5.6912  -12.4363    0.0000 H       1  UNL1        0.2100
    192 H           7.7985    9.0227    0.0000 H       1  UNL1        0.0938
    193 H           7.2768   10.3389    0.0000 H       1  UNL1        0.0671
    194 H           9.2295   11.4364    0.0000 H       1  UNL1        0.0648
    195 H           9.5304    9.0027    0.0000 H       1  UNL1        0.0647
    196 H          10.0825   10.3064    0.0000 H       1  UNL1        0.0647
    197 H           6.9642   11.7726    0.0000 H       1  UNL1        0.2101
    198 H           9.9938    8.6424    0.0000 H       1  UNL1        0.0584
    199 H          10.7908    8.6332    0.0000 H       1  UNL1        0.0584
    200 H           9.2410   12.4363    0.0000 H       1  UNL1        0.2100
    201 H          10.4281   11.7325    0.0000 H       1  UNL1        0.2100
    202 H          11.8029    9.2864    0.0000 H       1  UNL1        0.2095
@<TRIPOS>BOND
     1    48     1    1
     2    62     1    1
     3    46     2    1
     4     2   136    1
     5     3    59    1
     6    64     3    1
     7     4    59    2
     8     5    62    1
     9     5    66    1
    10    63     6    1
    11    73     6    1
    12     7    64    1
    13     7    70    1
    14    65     8    1
    15     8   156    1
    16    67     9    1
    17    76     9    1
    18    68    10    1
    19    77    10    1
    20    69    11    1
    21    11   162    1
    22    12    73    1
    23    12    79    1
    24    13    71    1
    25    13   163    1
    26    72    14    1
    27    14   164    1
    28    15    76    1
    29    15    88    1
    30    16    77    1
    31    16    85    1
    32    74    17    1
    33    17   170    1
    34    18    75    1
    35    18   171    1
    36    78    19    1
    37    19   182    1
    38    80    20    1
    39    20   183    1
    40    81    21    1
    41    21   184    1
    42    82    22    1
    43    22   185    1
    44    83    23    1
    45    23   189    1
    46    84    24    1
    47    24   190    1
    48    86    25    1
    49    91    25    1
    50    89    26    1
    51    26   191    1
    52    27    91    1
    53    27    94    1
    54    92    28    1
    55    28   197    1
    56    93    29    1
    57    29   200    1
    58    95    30    1
    59    30   201    1
    60    31    96    1
    61    31   202    1
    62    32    33    1
    63    32    35    1
    64    32    37    1
    65    32    47    1
    66    33    34    1
    67    33    42    1
    68    33    97    1
    69    34    36    1
    70    34    43    1
    71    34    50    1
    72    35    40    1
    73    35    44    1
    74    35    52    1
    75    36    38    1
    76    36    39    1
    77    36    98    1
    78    37    38    1
    79    37    99    1
    80    37   100    1
    81    38   101    1
    82    38   102    1
    83    39    48    1
    84    39    56    1
    85    39    57    1
    86    40    41    1
    87    40    49    2
    88    41    45    1
    89    41    53    1
    90    41   103    1
    91    42    49    1
    92    42   104    1
    93    42   105    1
    94    43    51    1
    95    43   106    1
    96    43   107    1
    97    44    46    1
    98    44   108    1
    99    44   109    1
   100    45    46    1
   101    45    54    1
   102    45    59    1
   103    46   110    1
   104    47   111    1
   105    47   112    1
   106    47   113    1
   107    48    51    1
   108    48   114    1
   109    49   115    1
   110    50   116    1
   111    50   117    1
   112    50   118    1
   113    51   119    1
   114    51   120    1
   115    52   121    1
   116    52   122    1
   117    52   123    1
   118    53    55    1
   119    53   124    1
   120    53   125    1
   121    54    58    1
   122    54   126    1
   123    54   127    1
   124    55    58    1
   125    55    60    1
   126    55    61    1
   127    56   131    1
   128    56   132    1
   129    56   133    1
   130    57   128    1
   131    57   129    1
   132    57   130    1
   133    58   134    1
   134    58   135    1
   135    60   137    1
   136    60   138    1
   137    60   139    1
   138    61   140    1
   139    61   141    1
   140    61   142    1
   141    62    63    1
   142    62   143    1
   143    63    65    1
   144    63   144    1
   145    64    68    1
   146    64   145    1
   147    65    67    1
   148    65   146    1
   149    66    67    1
   150    66    71    1
   151    66   147    1
   152    67   148    1
   153    68    69    1
   154    68   149    1
   155    69    72    1
   156    69   150    1
   157    70    72    1
   158    70    75    1
   159    70   151    1
   160    71   152    1
   161    71   153    1
   162    72   154    1
   163    73    74    1
   164    73   155    1
   165    74    78    1
   166    74   157    1
   167    75   158    1
   168    75   159    1
   169    76    80    1
   170    76   160    1
   171    77    82    1
   172    77   161    1
   173    78    81    1
   174    78   165    1
   175    79    81    1
   176    79    87    1
   177    79   166    1
   178    80    83    1
   179    80   167    1
   180    81   168    1
   181    82    84    1
   182    82   169    1
   183    83    89    1
   184    83   172    1
   185    84    86    1
   186    84   173    1
   187    85    86    1
   188    85    90    1
   189    85   174    1
   190    86   175    1
   191    87   176    1
   192    87   177    1
   193    87   178    1
   194    88    89    1
   195    88   179    1
   196    88   180    1
   197    89   181    1
   198    90   186    1
   199    90   187    1
   200    90   188    1
   201    91    92    1
   202    91   192    1
   203    92    93    1
   204    92   193    1
   205    93    95    1
   206    93   194    1
   207    94    95    1
   208    94    96    1
   209    94   195    1
   210    95   196    1
   211    96   198    1
   212    96   199    1
