@<TRIPOS>MOLECULE
IMPHY011490
 14 14 0 0 0
SMALL
GASTEIGER

@<TRIPOS>ATOM
      1 O           3.4483    1.3365    0.0000 O.3     1  UNL1       -0.4795
      2 OXT         4.6730    0.1118    0.0000 O.2     1  UNL1       -0.2492
      3 N           3.0000   -1.3365    0.0000 N.3     1  UNL1       -0.3040
      4 CA          3.0000   -0.3365    0.0000 C.3     1  UNL1        0.1069
      5 C           2.0000   -0.3365    0.0000 C.3     1  UNL1       -0.0146
      6 C           2.0000   -1.3365    0.0000 C.3     1  UNL1       -0.0014
      7 C           3.7071    0.3706    0.0000 C.2     1  UNL1        0.3220
      8 HA          3.5728   -0.5738    0.0000 H       1  UNL1        0.0576
      9 H           2.0000    0.2835    0.0000 H       1  UNL1        0.0298
     10 H           1.3800   -0.3365    0.0000 H       1  UNL1        0.0298
     11 H           1.3800   -1.3365    0.0000 H       1  UNL1        0.0425
     12 H           2.0000   -1.9565    0.0000 H       1  UNL1        0.0425
     13 H           3.4384   -1.7749    0.0000 H       1  UNL1        0.1227
     14 H           3.8867    1.7749    0.0000 H       1  UNL1        0.2951
@<TRIPOS>BOND
     1     1     7    1
     2     1    14    1
     3     2     7    2
     4     3     4    1
     5     3     6    1
     6     3    13    1
     7     4     5    1
     8     4     7    1
     9     4     8    1
    10     5     6    1
    11     5     9    1
    12     5    10    1
    13     6    11    1
    14     6    12    1
