@<TRIPOS>MOLECULE
IMPHY011656
 48 47 0 0 0
SMALL
GASTEIGER

@<TRIPOS>ATOM
      1 O           2.5369    0.4400    0.0000 O.3     1  UNL1       -0.4806
      2 O           3.4030   -1.0600    0.0000 O.2     1  UNL1       -0.2510
      3 C           7.7331    0.4400    0.0000 C.3     1  UNL1       -0.0528
      4 C           6.8671   -0.0600    0.0000 C.3     1  UNL1       -0.0530
      5 C           8.5991   -0.0600    0.0000 C.3     1  UNL1       -0.0496
      6 C           6.0010    0.4400    0.0000 C.3     1  UNL1       -0.0526
      7 C           9.4651    0.4400    0.0000 C.3     1  UNL1       -0.0348
      8 C           5.1350   -0.0600    0.0000 C.3     1  UNL1       -0.0430
      9 C          13.7953   -0.0600    0.0000 C.3     1  UNL1       -0.0528
     10 C          12.9292    0.4400    0.0000 C.3     1  UNL1       -0.0496
     11 C          14.6613    0.4400    0.0000 C.3     1  UNL1       -0.0533
     12 C          12.0632   -0.0600    0.0000 C.3     1  UNL1       -0.0348
     13 C          10.3312   -0.0600    0.0000 C.2     1  UNL1       -0.0879
     14 C          15.5273   -0.0600    0.0000 C.3     1  UNL1       -0.0559
     15 C           4.2690    0.4400    0.0000 C.3     1  UNL1        0.0448
     16 C          11.1972    0.4400    0.0000 C.2     1  UNL1       -0.0879
     17 C          16.3933    0.4400    0.0000 C.3     1  UNL1       -0.0653
     18 C           3.4030   -0.0600    0.0000 C.2     1  UNL1        0.3047
     19 H           8.1316    0.9149    0.0000 H       1  UNL1        0.0265
     20 H           7.3346    0.9149    0.0000 H       1  UNL1        0.0265
     21 H           6.4685   -0.5349    0.0000 H       1  UNL1        0.0265
     22 H           7.2656   -0.5349    0.0000 H       1  UNL1        0.0265
     23 H           8.2006   -0.5349    0.0000 H       1  UNL1        0.0268
     24 H           8.9976   -0.5349    0.0000 H       1  UNL1        0.0268
     25 H           6.3996    0.9149    0.0000 H       1  UNL1        0.0265
     26 H           5.6025    0.9149    0.0000 H       1  UNL1        0.0265
     27 H           9.8637    0.9149    0.0000 H       1  UNL1        0.0307
     28 H           9.0666    0.9149    0.0000 H       1  UNL1        0.0307
     29 H           4.7365   -0.5349    0.0000 H       1  UNL1        0.0270
     30 H           5.5335   -0.5349    0.0000 H       1  UNL1        0.0270
     31 H          13.3967   -0.5349    0.0000 H       1  UNL1        0.0265
     32 H          14.1938   -0.5349    0.0000 H       1  UNL1        0.0265
     33 H          13.3278    0.9149    0.0000 H       1  UNL1        0.0268
     34 H          12.5307    0.9149    0.0000 H       1  UNL1        0.0268
     35 H          15.0598    0.9149    0.0000 H       1  UNL1        0.0265
     36 H          14.2628    0.9149    0.0000 H       1  UNL1        0.0265
     37 H          11.6647   -0.5349    0.0000 H       1  UNL1        0.0307
     38 H          12.4617   -0.5349    0.0000 H       1  UNL1        0.0307
     39 H          10.3312   -0.6800    0.0000 H       1  UNL1        0.0569
     40 H          15.1288   -0.5349    0.0000 H       1  UNL1        0.0263
     41 H          15.9258   -0.5349    0.0000 H       1  UNL1        0.0263
     42 H           4.6675    0.9149    0.0000 H       1  UNL1        0.0377
     43 H           3.8705    0.9149    0.0000 H       1  UNL1        0.0377
     44 H          11.1972    1.0600    0.0000 H       1  UNL1        0.0569
     45 H          16.7033   -0.0969    0.0000 H       1  UNL1        0.0230
     46 H          16.9303    0.7500    0.0000 H       1  UNL1        0.0230
     47 H          16.0833    0.9769    0.0000 H       1  UNL1        0.0230
     48 H           2.0000    0.1300    0.0000 H       1  UNL1        0.2951
@<TRIPOS>BOND
     1     1    18    1
     2     1    48    1
     3     2    18    2
     4     3     4    1
     5     3     5    1
     6     3    19    1
     7     3    20    1
     8     4     6    1
     9     4    21    1
    10     4    22    1
    11     5     7    1
    12     5    23    1
    13     5    24    1
    14     6     8    1
    15     6    25    1
    16     6    26    1
    17     7    13    1
    18     7    27    1
    19     7    28    1
    20     8    15    1
    21     8    29    1
    22     8    30    1
    23     9    10    1
    24     9    11    1
    25     9    31    1
    26     9    32    1
    27    10    12    1
    28    10    33    1
    29    10    34    1
    30    11    14    1
    31    11    35    1
    32    11    36    1
    33    12    16    1
    34    12    37    1
    35    12    38    1
    36    13    16    2
    37    13    39    1
    38    14    17    1
    39    14    40    1
    40    14    41    1
    41    15    18    1
    42    15    42    1
    43    15    43    1
    44    16    44    1
    45    17    45    1
    46    17    46    1
    47    17    47    1
