@<TRIPOS>MOLECULE
IMPHY000662
 39 41 0 0 0
SMALL
GASTEIGER

@<TRIPOS>ATOM
      1 O           5.1482    2.1688    0.0000 O.3     1  UNL1       -0.4574
      2 O           5.7812   -1.0396    0.0000 O.3     1  UNL1       -0.3901
      3 O           4.6840   -2.5270    0.0000 O.2     1  UNL1       -0.2967
      4 O           6.8881    2.5270    0.0000 O.2     1  UNL1       -0.2453
      5 C           4.0984   -0.8500    0.0000 C.3     1  UNL1        0.0557
      6 C           3.1974   -0.4161    0.0000 C.3     1  UNL1       -0.0235
      7 C           2.9749    0.5588    0.0000 C.3     1  UNL1       -0.0367
      8 C           4.9994   -0.4161    0.0000 C.3     1  UNL1        0.0779
      9 C           5.2219    0.5588    0.0000 C.3     1  UNL1        0.0543
     10 C           2.5124   -1.1364    0.0000 C.3     1  UNL1       -0.0423
     11 C           4.5984    1.3406    0.0000 C.3     1  UNL1        0.1130
     12 C           3.5984    1.3406    0.0000 C.3     1  UNL1       -0.0121
     13 C           3.9624   -1.8347    0.0000 C.2     1  UNL1        0.1419
     14 C           2.9842   -2.0114    0.0000 C.3     1  UNL1        0.0068
     15 C           4.9994   -1.2839    0.0000 C.3     1  UNL1       -0.0501
     16 C           2.0000    0.7813    0.0000 C.3     1  UNL1       -0.0620
     17 C           6.1517    0.9105    0.0000 C.2     1  UNL1        0.0386
     18 C           6.1062    1.9036    0.0000 C.2     1  UNL1        0.3353
     19 C           6.9872    0.3611    0.0000 C.2     1  UNL1       -0.0882
     20 H           2.3778   -0.1911    0.0000 H       1  UNL1        0.0314
     21 H           2.7702    1.1440    0.0000 H       1  UNL1        0.0302
     22 H           5.5846   -0.2113    0.0000 H       1  UNL1        0.0610
     23 H           5.8627    0.0004    0.0000 H       1  UNL1        0.0412
     24 H           2.1105   -0.6643    0.0000 H       1  UNL1        0.0272
     25 H           2.0006   -1.4864    0.0000 H       1  UNL1        0.0272
     26 H           4.1966    2.0897    0.0000 H       1  UNL1        0.0741
     27 H           3.7364    1.9451    0.0000 H       1  UNL1        0.0304
     28 H           3.0398    1.6096    0.0000 H       1  UNL1        0.0304
     29 H           2.4105   -2.2467    0.0000 H       1  UNL1        0.0342
     30 H           3.1579   -2.6066    0.0000 H       1  UNL1        0.0342
     31 H           4.7304   -1.8425    0.0000 H       1  UNL1        0.0240
     32 H           5.5580   -1.5529    0.0000 H       1  UNL1        0.0240
     33 H           5.2684   -0.7253    0.0000 H       1  UNL1        0.0240
     34 H           2.1380    1.3858    0.0000 H       1  UNL1        0.0233
     35 H           1.3955    0.9193    0.0000 H       1  UNL1        0.0233
     36 H           1.8620    0.1769    0.0000 H       1  UNL1        0.0233
     37 H           6.3584   -0.8131    0.0000 H       1  UNL1        0.2098
     38 H           6.9512   -0.2579    0.0000 H       1  UNL1        0.0540
     39 H           7.5412    0.6394    0.0000 H       1  UNL1        0.0540
@<TRIPOS>BOND
     1     1    11    1
     2     1    18    1
     3     8     2    1
     4     2    37    1
     5     3    13    2
     6     4    18    2
     7     5     6    1
     8     5     8    1
     9     5    13    1
    10     5    15    1
    11     6     7    1
    12     6    10    1
    13     6    20    1
    14     7    12    1
    15     7    16    1
    16     7    21    1
    17     8     9    1
    18     8    22    1
    19     9    11    1
    20     9    17    1
    21     9    23    1
    22    10    14    1
    23    10    24    1
    24    10    25    1
    25    11    12    1
    26    11    26    1
    27    12    27    1
    28    12    28    1
    29    13    14    1
    30    14    29    1
    31    14    30    1
    32    15    31    1
    33    15    32    1
    34    15    33    1
    35    16    34    1
    36    16    35    1
    37    16    36    1
    38    17    18    1
    39    17    19    2
    40    19    38    1
    41    19    39    1
