@<TRIPOS>MOLECULE
IMPHY010428
 37 43 0 0 0
SMALL
GASTEIGER

@<TRIPOS>ATOM
      1 O           8.2586   -1.1440    0.0000 O.3     1  UNL1       -0.3554
      2 O           2.0000    2.6947    0.0000 O.3     1  UNL1       -0.4485
      3 O           5.6268    3.6254    0.0000 O.3     1  UNL1       -0.2231
      4 O           5.3751   -2.8316    0.0000 O.2     1  UNL1       -0.2720
      5 O           6.0474   -4.9007    0.0000 O.3     1  UNL1       -0.2561
      6 O           2.6328    1.0824    0.0000 O.2     1  UNL1       -0.2501
      7 N           5.0819   -0.7923    0.0000 N.2     1  UNL1       -0.2809
      8 N           6.6351   -4.0916    0.0000 N.am    1  UNL1       -0.1458
      9 C           6.6351   -0.3622    0.0000 C.3     1  UNL1        0.0573
     10 C           6.0854    0.4661    0.0000 C.3     1  UNL1        0.0424
     11 C           7.1351   -2.5528    0.0000 C.3     1  UNL1        0.1180
     12 C           6.0116   -1.1440    0.0000 C.3     1  UNL1        0.1061
     13 C           8.0361   -2.1189    0.0000 C.3     1  UNL1        0.1275
     14 C           6.3145   -1.3896    0.0000 C.3     1  UNL1        0.0361
     15 C           6.2342   -2.1189    0.0000 C.3     1  UNL1        0.0396
     16 C           5.1273    0.2008    0.0000 C.2     1  UNL1        0.0309
     17 C           3.8617    3.4254    0.0000 C.3     1  UNL1        0.0446
     18 C           7.6351   -0.3622    0.0000 C.3     1  UNL1        0.1443
     19 C           3.0799    4.0489    0.0000 C.3     1  UNL1        0.0469
     20 C           4.3455    0.8243    0.0000 C.3     1  UNL1        0.0362
     21 C           3.7127    2.4366    0.0000 C.3     1  UNL1        0.1020
     22 C           4.4945    1.8131    0.0000 C.3     1  UNL1        0.0167
     23 C           3.4316    4.9787    0.0000 C.3     1  UNL1        0.0062
     24 C           4.6900    3.9752    0.0000 C.3     1  UNL1        0.1526
     25 C           7.9442   -3.1406    0.0000 C.ar    1  UNL1        0.0038
     26 C           4.4247    4.9332    0.0000 C.3     1  UNL1        0.0330
     27 C           6.3261   -3.1406    0.0000 C.2     1  UNL1        0.2570
     28 C           2.1490    3.6836    0.0000 C.3     1  UNL1        0.2084
     29 C           7.6351   -4.0916    0.0000 C.ar    1  UNL1        0.0776
     30 C           2.7818    2.0712    0.0000 C.2     1  UNL1        0.3165
     31 C           3.4146    0.4589    0.0000 C.3     1  UNL1        0.0059
     32 C           2.8822    5.8142    0.0000 C.3     1  UNL1        0.0002
     33 C           8.9596   -2.9083    0.0000 C.ar    1  UNL1       -0.0024
     34 C           8.3201   -4.8764    0.0000 C.ar    1  UNL1        0.0169
     35 C           9.6625   -3.6770    0.0000 C.ar    1  UNL1       -0.0002
     36 C           9.3406   -4.6677    0.0000 C.ar    1  UNL1        0.0013
     37 C           6.4541   -5.8142    0.0000 C.3     1  UNL1        0.2063
@<TRIPOS>BOND
     1     1    13    1
     2     1    18    1
     3     2    28    1
     4     2    30    1
     5     3    24    1
     6     4    27    2
     7     5     8    1
     8     5    37    1
     9     6    30    2
    10     7    12    1
    11     7    16    2
    12     8    27   am
    13     8    29    1
    14     9    10    1
    15     9    12    1
    16     9    18    1
    17    10    14    1
    18    10    16    1
    19    11    13    1
    20    11    15    1
    21    11    25    1
    22    11    27    1
    23    12    15    1
    24    13    14    1
    25    16    20    1
    26    17    19    1
    27    17    21    1
    28    17    24    1
    29    19    23    1
    30    19    28    1
    31    20    22    1
    32    20    31    1
    33    21    22    1
    34    21    30    1
    35    23    26    1
    36    23    32    1
    37    24    26    1
    38    25    29   ar
    39    25    33   ar
    40    29    34   ar
    41    33    35   ar
    42    34    36   ar
    43    35    36   ar
