@<TRIPOS>MOLECULE
IMPHY017332
 42 43 0 0 0
SMALL
GASTEIGER

@<TRIPOS>ATOM
      1 O           2.5369    1.2327    0.0000 O.3     1  UNL1       -0.3848
      2 C           6.0010   -0.7673    0.0000 C.3     1  UNL1       -0.0253
      3 C           6.0010    0.2327    0.0000 C.3     1  UNL1       -0.0146
      4 C           6.8950    0.7674    0.0000 C.3     1  UNL1       -0.0371
      5 C           6.8950   -1.3020    0.0000 C.3     1  UNL1       -0.0471
      6 C           5.1350   -1.2673    0.0000 C.3     1  UNL1       -0.0433
      7 C           7.8010    0.2535    0.0000 C.3     1  UNL1       -0.0499
      8 C           7.8010   -0.7881    0.0000 C.3     1  UNL1       -0.0523
      9 C           5.1350    0.7327    0.0000 C.2     1  UNL1       -0.0782
     10 C           4.2690   -0.7673    0.0000 C.3     1  UNL1       -0.0286
     11 C           6.0010   -1.7673    0.0000 C.3     1  UNL1       -0.0590
     12 C           4.2690    0.2327    0.0000 C.2     1  UNL1       -0.0426
     13 C           6.8834    1.7673    0.0000 C.3     1  UNL1       -0.0619
     14 C           3.4030    0.7327    0.0000 C.3     1  UNL1        0.0815
     15 C           2.9030   -0.1333    0.0000 C.3     1  UNL1       -0.0325
     16 C           3.9030    1.5987    0.0000 C.3     1  UNL1       -0.0325
     17 H           5.9963    0.8527    0.0000 H       1  UNL1        0.0351
     18 H           7.4289    1.0825    0.0000 H       1  UNL1        0.0304
     19 H           6.4904   -1.7718    0.0000 H       1  UNL1        0.0271
     20 H           7.2886   -1.7810    0.0000 H       1  UNL1        0.0271
     21 H           4.7365   -1.7422    0.0000 H       1  UNL1        0.0274
     22 H           5.5335   -1.7422    0.0000 H       1  UNL1        0.0274
     23 H           8.4119    0.1474    0.0000 H       1  UNL1        0.0268
     24 H           8.0101    0.8372    0.0000 H       1  UNL1        0.0268
     25 H           8.0101   -1.3718    0.0000 H       1  UNL1        0.0266
     26 H           8.4119   -0.6820    0.0000 H       1  UNL1        0.0266
     27 H           5.1350    1.3527    0.0000 H       1  UNL1        0.0576
     28 H           3.6584   -0.6596    0.0000 H       1  UNL1        0.0311
     29 H           4.0569   -1.3499    0.0000 H       1  UNL1        0.0311
     30 H           5.3810   -1.7673    0.0000 H       1  UNL1        0.0235
     31 H           6.0010   -2.3873    0.0000 H       1  UNL1        0.0235
     32 H           6.6210   -1.7673    0.0000 H       1  UNL1        0.0235
     33 H           7.5034    1.7745    0.0000 H       1  UNL1        0.0233
     34 H           6.8762    2.3873    0.0000 H       1  UNL1        0.0233
     35 H           6.2635    1.7601    0.0000 H       1  UNL1        0.0233
     36 H           2.3660    0.1767    0.0000 H       1  UNL1        0.0260
     37 H           2.5930   -0.6703    0.0000 H       1  UNL1        0.0260
     38 H           3.4399   -0.4433    0.0000 H       1  UNL1        0.0260
     39 H           4.4399    1.2887    0.0000 H       1  UNL1        0.0260
     40 H           4.2130    2.1357    0.0000 H       1  UNL1        0.0260
     41 H           3.3660    1.9087    0.0000 H       1  UNL1        0.0260
     42 H           2.0000    0.9227    0.0000 H       1  UNL1        0.2106
@<TRIPOS>BOND
     1     1    14    1
     2     1    42    1
     3     2     3    1
     4     2     5    1
     5     2     6    1
     6     2    11    1
     7     3     4    1
     8     3     9    1
     9     3    17    1
    10     4     7    1
    11     4    13    1
    12     4    18    1
    13     5     8    1
    14     5    19    1
    15     5    20    1
    16     6    10    1
    17     6    21    1
    18     6    22    1
    19     7     8    1
    20     7    23    1
    21     7    24    1
    22     8    25    1
    23     8    26    1
    24     9    12    2
    25     9    27    1
    26    10    12    1
    27    10    28    1
    28    10    29    1
    29    11    30    1
    30    11    31    1
    31    11    32    1
    32    12    14    1
    33    13    33    1
    34    13    34    1
    35    13    35    1
    36    14    15    1
    37    14    16    1
    38    15    36    1
    39    15    37    1
    40    15    38    1
    41    16    39    1
    42    16    40    1
    43    16    41    1
