@<TRIPOS>MOLECULE
IMPHY013419
 49 52 0 0 0
SMALL
GASTEIGER

@<TRIPOS>ATOM
      1 O           6.0682   -1.7704    0.0000 O.3     1  UNL1       -0.3369
      2 O           6.9343   -0.2704    0.0000 O.3     1  UNL1       -0.4600
      3 O           8.6663   -3.2704    0.0000 O.3     1  UNL1       -0.3864
      4 O           8.6663   -1.2704    0.0000 O.3     1  UNL1       -0.3829
      5 O           6.9343   -4.2704    0.0000 O.3     1  UNL1       -0.3869
      6 O           6.0682    1.2296    0.0000 O.2     1  UNL1       -0.4542
      7 O          10.3984   -0.2704    0.0000 O.3     1  UNL1       -0.5032
      8 O          10.3984    1.7296    0.0000 O.3     1  UNL1       -0.5033
      9 O           6.0682    4.2296    0.0000 O.2     1  UNL1       -0.2869
     10 O           4.3198    4.2642    0.0000 O.3     1  UNL1       -0.5058
     11 O           2.5381    1.2055    0.0000 O.3     1  UNL1       -0.5065
     12 C           7.8003   -2.7704    0.0000 C.3     1  UNL1        0.1148
     13 C           7.8003   -1.7704    0.0000 C.3     1  UNL1        0.1454
     14 C           6.9343   -3.2704    0.0000 C.3     1  UNL1        0.1070
     15 C           6.9343   -1.2704    0.0000 C.3     1  UNL1        0.2305
     16 C           6.0682   -2.7704    0.0000 C.3     1  UNL1        0.0802
     17 C           7.8003    0.2296    0.0000 C.ar    1  UNL1        0.1383
     18 C           7.8003    1.2296    0.0000 C.ar    1  UNL1        0.0628
     19 C           8.6663   -0.2704    0.0000 C.ar    1  UNL1        0.0260
     20 C           6.9343    1.7296    0.0000 C.ar    1  UNL1        0.1428
     21 C           8.6663    1.7296    0.0000 C.ar    1  UNL1       -0.0023
     22 C           9.5323    0.2296    0.0000 C.ar    1  UNL1        0.1618
     23 C           9.5323    1.2296    0.0000 C.ar    1  UNL1        0.1591
     24 C           6.9343    2.7296    0.0000 C.ar    1  UNL1        0.0289
     25 C           5.2022    2.7296    0.0000 C.ar    1  UNL1        0.1055
     26 C           5.2022    1.7296    0.0000 C.ar    1  UNL1        0.1462
     27 C           6.0682    3.2296    0.0000 C.ar    1  UNL1        0.1966
     28 C           4.3083    3.2643    0.0000 C.ar    1  UNL1        0.1347
     29 C           4.3083    1.1950    0.0000 C.ar    1  UNL1        0.0231
     30 C           3.4022    1.7088    0.0000 C.ar    1  UNL1        0.1239
     31 C           3.4022    2.7504    0.0000 C.ar    1  UNL1        0.0223
     32 H           7.8003   -3.3904    0.0000 H       1  UNL1        0.0648
     33 H           8.3372   -2.0804    0.0000 H       1  UNL1        0.0683
     34 H           6.3973   -3.5804    0.0000 H       1  UNL1        0.0643
     35 H           7.4712   -0.9604    0.0000 H       1  UNL1        0.1084
     36 H           5.4577   -2.6627    0.0000 H       1  UNL1        0.0588
     37 H           5.8562   -3.3530    0.0000 H       1  UNL1        0.0588
     38 H           8.6663   -3.8904    0.0000 H       1  UNL1        0.2100
     39 H           9.2033   -1.5804    0.0000 H       1  UNL1        0.2102
     40 H           6.3973   -4.5804    0.0000 H       1  UNL1        0.2100
     41 H           8.6663   -0.8904    0.0000 H       1  UNL1        0.0692
     42 H           8.6663    2.3496    0.0000 H       1  UNL1        0.0663
     43 H           7.4712    3.0396    0.0000 H       1  UNL1        0.0693
     44 H           4.3154    0.5750    0.0000 H       1  UNL1        0.0691
     45 H           2.8665    3.0625    0.0000 H       1  UNL1        0.0691
     46 H          10.3984   -0.8904    0.0000 H       1  UNL1        0.2923
     47 H          10.3984    2.3496    0.0000 H       1  UNL1        0.2923
     48 H           3.7865    4.5804    0.0000 H       1  UNL1        0.2922
     49 H           2.0000    1.5134    0.0000 H       1  UNL1        0.2921
@<TRIPOS>BOND
     1     1    15    1
     2     1    16    1
     3    15     2    1
     4     2    17    1
     5    12     3    1
     6     3    38    1
     7     4    13    1
     8     4    39    1
     9    14     5    1
    10     5    40    1
    11     6    20   ar
    12     6    26   ar
    13     7    22    1
    14     7    46    1
    15     8    23    1
    16     8    47    1
    17     9    27    2
    18    10    28    1
    19    10    48    1
    20    11    30    1
    21    11    49    1
    22    12    13    1
    23    12    14    1
    24    12    32    1
    25    13    15    1
    26    13    33    1
    27    14    16    1
    28    14    34    1
    29    15    35    1
    30    16    36    1
    31    16    37    1
    32    17    18   ar
    33    17    19   ar
    34    18    20    1
    35    18    21   ar
    36    19    22   ar
    37    19    41    1
    38    20    24   ar
    39    21    23   ar
    40    21    42    1
    41    22    23   ar
    42    24    27   ar
    43    24    43    1
    44    25    26   ar
    45    25    27   ar
    46    25    28   ar
    47    26    29   ar
    48    28    31   ar
    49    29    30   ar
    50    29    44    1
    51    30    31   ar
    52    31    45    1
