@<TRIPOS>MOLECULE
IMPHY011652
 39 39 0 0 0
SMALL
GASTEIGER

@<TRIPOS>ATOM
      1 O           3.6200    0.2010    0.0000 O.3     1  UNL1       -0.3796
      2 O           4.1200   -3.6651    0.0000 O.2     1  UNL1       -0.2927
      3 O           2.6200    3.6651    0.0000 O.3     1  UNL1       -0.4775
      4 O           2.6200    1.9330    0.0000 O.2     1  UNL1       -0.2458
      5 C           3.2540   -1.1651    0.0000 C.3     1  UNL1        0.0084
      6 C           4.1200   -0.6651    0.0000 C.3     1  UNL1        0.1111
      7 C           3.2540   -2.1651    0.0000 C.3     1  UNL1        0.0182
      8 C           4.9860   -1.1651    0.0000 C.2     1  UNL1       -0.0339
      9 C           2.2540   -1.1651    0.0000 C.3     1  UNL1       -0.0562
     10 C           2.4879   -0.5223    0.0000 C.3     1  UNL1       -0.0562
     11 C           4.1200   -2.6651    0.0000 C.2     1  UNL1        0.1568
     12 C           4.6200    0.2010    0.0000 C.2     1  UNL1       -0.0480
     13 C           4.9860   -2.1651    0.0000 C.2     1  UNL1       -0.0172
     14 C           5.8520   -0.6651    0.0000 C.3     1  UNL1       -0.0404
     15 C           4.1200    1.0670    0.0000 C.2     1  UNL1       -0.0595
     16 C           4.6200    1.9330    0.0000 C.2     1  UNL1       -0.0439
     17 C           5.6200    1.9330    0.0000 C.3     1  UNL1       -0.0395
     18 C           4.1200    2.7990    0.0000 C.2     1  UNL1        0.0252
     19 C           3.1200    2.7990    0.0000 C.2     1  UNL1        0.3298
     20 H           2.6434   -2.0574    0.0000 H       1  UNL1        0.0351
     21 H           3.0419   -2.7477    0.0000 H       1  UNL1        0.0351
     22 H           2.8865   -0.0473    0.0000 H       1  UNL1        0.0236
     23 H           2.0130   -0.1237    0.0000 H       1  UNL1        0.0236
     24 H           2.2540   -0.5451    0.0000 H       1  UNL1        0.0236
     25 H           1.6340   -1.1651    0.0000 H       1  UNL1        0.0236
     26 H           2.2540   -1.7851    0.0000 H       1  UNL1        0.0236
     27 H           2.0894   -0.9972    0.0000 H       1  UNL1        0.0236
     28 H           5.2400    0.2010    0.0000 H       1  UNL1        0.0604
     29 H           5.5230   -2.4751    0.0000 H       1  UNL1        0.0653
     30 H           3.0000    0.2010    0.0000 H       1  UNL1        0.2111
     31 H           6.1620   -1.2020    0.0000 H       1  UNL1        0.0275
     32 H           6.3890   -0.3551    0.0000 H       1  UNL1        0.0275
     33 H           5.5420   -0.1281    0.0000 H       1  UNL1        0.0275
     34 H           3.5000    1.0670    0.0000 H       1  UNL1        0.0618
     35 H           5.6200    1.3130    0.0000 H       1  UNL1        0.0278
     36 H           6.2400    1.9330    0.0000 H       1  UNL1        0.0278
     37 H           5.6200    2.5530    0.0000 H       1  UNL1        0.0278
     38 H           4.4300    3.3360    0.0000 H       1  UNL1        0.0691
     39 H           2.0000    3.6651    0.0000 H       1  UNL1        0.2954
@<TRIPOS>BOND
     1     6     1    1
     2     1    30    1
     3     2    11    2
     4     3    19    1
     5     3    39    1
     6     4    19    2
     7     5     6    1
     8     5     7    1
     9     5     9    1
    10     5    10    1
    11     6     8    1
    12     6    12    1
    13     7    11    1
    14     7    20    1
    15     7    21    1
    16     8    13    2
    17     8    14    1
    18     9    24    1
    19     9    25    1
    20     9    26    1
    21    10    22    1
    22    10    23    1
    23    10    27    1
    24    11    13    1
    25    12    15    2
    26    12    28    1
    27    13    29    1
    28    14    31    1
    29    14    32    1
    30    14    33    1
    31    15    16    1
    32    15    34    1
    33    16    17    1
    34    16    18    2
    35    17    35    1
    36    17    36    1
    37    17    37    1
    38    18    19    1
    39    18    38    1
