@<TRIPOS>MOLECULE
IMPHY017079
 40 39 0 0 0
SMALL
GASTEIGER

@<TRIPOS>ATOM
      1 O           2.0000   -0.0600    0.0000 O.2     1  UNL1       -0.3010
      2 C           7.1962   -0.0600    0.0000 C.3     1  UNL1       -0.0439
      3 C           8.0622    0.4400    0.0000 C.3     1  UNL1       -0.0505
      4 C           6.3301    0.4400    0.0000 C.3     1  UNL1       -0.0504
      5 C           8.9282   -0.0600    0.0000 C.3     1  UNL1       -0.0526
      6 C           9.7942    0.4400    0.0000 C.3     1  UNL1       -0.0507
      7 C           5.4641   -0.0600    0.0000 C.3     1  UNL1       -0.0524
      8 C          10.6603   -0.0600    0.0000 C.3     1  UNL1       -0.0467
      9 C           7.1962   -1.0600    0.0000 C.3     1  UNL1       -0.0624
     10 C           4.5981    0.4400    0.0000 C.3     1  UNL1       -0.0466
     11 C          11.5263    0.4400    0.0000 C.3     1  UNL1       -0.0627
     12 C          10.6603   -1.0600    0.0000 C.3     1  UNL1       -0.0627
     13 C           3.7320   -0.0600    0.0000 C.3     1  UNL1        0.0028
     14 C           2.8660    0.4400    0.0000 C.2     1  UNL1        0.1203
     15 H           6.6592   -0.3700    0.0000 H       1  UNL1        0.0298
     16 H           8.4607    0.9149    0.0000 H       1  UNL1        0.0268
     17 H           7.6636    0.9149    0.0000 H       1  UNL1        0.0268
     18 H           6.7287    0.9149    0.0000 H       1  UNL1        0.0268
     19 H           5.9316    0.9149    0.0000 H       1  UNL1        0.0268
     20 H           8.5297   -0.5349    0.0000 H       1  UNL1        0.0265
     21 H           9.3267   -0.5349    0.0000 H       1  UNL1        0.0265
     22 H          10.1928    0.9149    0.0000 H       1  UNL1        0.0268
     23 H           9.3957    0.9149    0.0000 H       1  UNL1        0.0268
     24 H           5.0656   -0.5349    0.0000 H       1  UNL1        0.0265
     25 H           5.8626   -0.5349    0.0000 H       1  UNL1        0.0265
     26 H          11.1972   -0.3700    0.0000 H       1  UNL1        0.0295
     27 H           6.5762   -1.0600    0.0000 H       1  UNL1        0.0232
     28 H           7.1962   -1.6800    0.0000 H       1  UNL1        0.0232
     29 H           7.8162   -1.0600    0.0000 H       1  UNL1        0.0232
     30 H           4.9966    0.9149    0.0000 H       1  UNL1        0.0269
     31 H           4.1996    0.9149    0.0000 H       1  UNL1        0.0269
     32 H          11.8363   -0.0969    0.0000 H       1  UNL1        0.0232
     33 H          12.0632    0.7500    0.0000 H       1  UNL1        0.0232
     34 H          11.2163    0.9769    0.0000 H       1  UNL1        0.0232
     35 H          10.0403   -1.0600    0.0000 H       1  UNL1        0.0232
     36 H          10.6603   -1.6800    0.0000 H       1  UNL1        0.0232
     37 H          11.2803   -1.0600    0.0000 H       1  UNL1        0.0232
     38 H           3.3335   -0.5349    0.0000 H       1  UNL1        0.0339
     39 H           4.1306   -0.5349    0.0000 H       1  UNL1        0.0339
     40 H           2.8660    1.0600    0.0000 H       1  UNL1        0.1026
@<TRIPOS>BOND
     1     1    14    2
     2     2     3    1
     3     2     4    1
     4     2     9    1
     5     2    15    1
     6     3     5    1
     7     3    16    1
     8     3    17    1
     9     4     7    1
    10     4    18    1
    11     4    19    1
    12     5     6    1
    13     5    20    1
    14     5    21    1
    15     6     8    1
    16     6    22    1
    17     6    23    1
    18     7    10    1
    19     7    24    1
    20     7    25    1
    21     8    11    1
    22     8    12    1
    23     8    26    1
    24     9    27    1
    25     9    28    1
    26     9    29    1
    27    10    13    1
    28    10    30    1
    29    10    31    1
    30    11    32    1
    31    11    33    1
    32    11    34    1
    33    12    35    1
    34    12    36    1
    35    12    37    1
    36    13    14    1
    37    13    38    1
    38    13    39    1
    39    14    40    1
