@<TRIPOS>MOLECULE
IMPHY010916
 46 49 0 0 0
SMALL
GASTEIGER

@<TRIPOS>ATOM
      1 O           5.5320    0.2350    0.0000 O.2     1  UNL1       -0.2904
      2 O           2.8680   -1.2408    0.0000 O.3     1  UNL1       -0.4951
      3 N           7.9557    1.4507    0.0000 N.3     1  UNL1       -0.2920
      4 N           6.3981   -3.2650    0.0000 N.ar    1  UNL1       -0.2549
      5 C           8.8217    1.9507    0.0000 C.3     1  UNL1       -0.0306
      6 C          10.2110    1.3986    0.0000 C.3     1  UNL1       -0.0074
      7 C           8.2300   -0.0238    0.0000 C.3     1  UNL1       -0.0267
      8 C           7.2641    0.2350    0.0000 C.3     1  UNL1        0.0739
      9 C           8.1923    3.2997    0.0000 C.3     1  UNL1       -0.0367
     10 C           9.7884    0.4923    0.0000 C.3     1  UNL1        0.0061
     11 C           7.3263    2.7997    0.0000 C.3     1  UNL1       -0.0001
     12 C           6.3981   -0.2650    0.0000 C.2     1  UNL1        0.1808
     13 C          11.1507    1.7407    0.0000 C.2     1  UNL1       -0.0865
     14 C           6.3981   -1.2650    0.0000 C.ar    1  UNL1        0.0297
     15 C          11.9167    1.0979    0.0000 C.2     1  UNL1       -0.1023
     16 C           5.5320   -1.7650    0.0000 C.ar    1  UNL1        0.0144
     17 C           7.2641   -1.7650    0.0000 C.ar    1  UNL1       -0.0324
     18 C           5.5320   -2.7650    0.0000 C.ar    1  UNL1        0.0719
     19 C           4.6381   -1.2303    0.0000 C.ar    1  UNL1       -0.0101
     20 C           7.2641   -2.7650    0.0000 C.ar    1  UNL1        0.0289
     21 C           4.6381   -3.2997    0.0000 C.ar    1  UNL1       -0.0323
     22 C           3.7320   -1.7442    0.0000 C.ar    1  UNL1        0.1208
     23 C           3.7320   -2.7858    0.0000 C.ar    1  UNL1       -0.0179
     24 C           2.0000   -1.7375    0.0000 C.3     1  UNL1        0.0788
     25 H           9.5578    2.3757    0.0000 H       1  UNL1        0.0308
     26 H          10.2200    2.0186    0.0000 H       1  UNL1        0.0358
     27 H           8.0637   -0.6211    0.0000 H       1  UNL1        0.0287
     28 H           8.8256   -0.1960    0.0000 H       1  UNL1        0.0287
     29 H           6.8243    0.6720    0.0000 H       1  UNL1        0.0545
     30 H           8.7463    3.5780    0.0000 H       1  UNL1        0.0280
     31 H           7.8980    3.8454    0.0000 H       1  UNL1        0.0280
     32 H           9.5094   -0.0614    0.0000 H       1  UNL1        0.0433
     33 H          10.3462    0.2218    0.0000 H       1  UNL1        0.0433
     34 H           7.0320    3.3454    0.0000 H       1  UNL1        0.0427
     35 H           6.7723    2.5213    0.0000 H       1  UNL1        0.0427
     36 H          11.2583    2.3512    0.0000 H       1  UNL1        0.0570
     37 H          11.8091    0.4873    0.0000 H       1  UNL1        0.0532
     38 H          12.4993    1.3099    0.0000 H       1  UNL1        0.0532
     39 H           7.8010   -1.4550    0.0000 H       1  UNL1        0.0640
     40 H           4.6453   -0.6104    0.0000 H       1  UNL1        0.0661
     41 H           7.8010   -3.0750    0.0000 H       1  UNL1        0.0830
     42 H           4.6453   -3.9196    0.0000 H       1  UNL1        0.0640
     43 H           3.1963   -3.0979    0.0000 H       1  UNL1        0.0655
     44 H           1.6921   -1.1994    0.0000 H       1  UNL1        0.0660
     45 H           1.4619   -2.0454    0.0000 H       1  UNL1        0.0660
     46 H           2.3079   -2.2756    0.0000 H       1  UNL1        0.0660
@<TRIPOS>BOND
     1     1    12    2
     2     2    22    1
     3     2    24    1
     4     3     8    1
     5     3    10    1
     6     3    11    1
     7     4    18   ar
     8     4    20   ar
     9     5     6    1
    10     5     7    1
    11     5     9    1
    12     5    25    1
    13     6    10    1
    14     6    13    1
    15     6    26    1
    16     7     8    1
    17     7    27    1
    18     7    28    1
    19     8    12    1
    20     8    29    1
    21     9    11    1
    22     9    30    1
    23     9    31    1
    24    10    32    1
    25    10    33    1
    26    11    34    1
    27    11    35    1
    28    12    14    1
    29    13    15    2
    30    13    36    1
    31    14    16   ar
    32    14    17   ar
    33    15    37    1
    34    15    38    1
    35    16    18   ar
    36    16    19   ar
    37    17    20   ar
    38    17    39    1
    39    18    21   ar
    40    19    22   ar
    41    19    40    1
    42    20    41    1
    43    21    23   ar
    44    21    42    1
    45    22    23   ar
    46    23    43    1
    47    24    44    1
    48    24    45    1
    49    24    46    1
