@<TRIPOS>MOLECULE
IMPHY001474
 32 36 0 0 0
SMALL
GASTEIGER

@<TRIPOS>ATOM
      1 C        2516.0800 2590.1200    0.0000 C.2     1  UNL1        0.3672
      2 O        2481.4400 2570.1700    0.0000 O.co2   1  UNL1       -0.2453
      3 O        2516.0800 2630.1200    0.0000 O.co2   1  UNL1       -0.2453
      4 C        2584.2700 2550.8200    0.0000 C.3     1  UNL1        0.1085
      5 C        2549.4300 2530.5700    0.0000 C.2     1  UNL1       -0.0393
      6 C        2549.4300 2490.2700    0.0000 C.3     1  UNL1        0.0185
      7 C        2514.8900 2470.1200    0.0000 C.3     1  UNL1        0.0037
      8 C        2514.8900 2510.1200    0.0000 C.3     1  UNL1        0.0003
      9 C        2480.3500 2490.2700    0.0000 C.3     1  UNL1        0.0043
     10 C        2480.3500 2530.5700    0.0000 C.3     1  UNL1        0.0254
     11 C        2514.8900 2550.8200    0.0000 C.2     1  UNL1       -0.0341
     12 C        2480.3500 2450.2700    0.0000 C.3     1  UNL1        0.0003
     13 C        2445.8100 2470.1200    0.0000 C.3     1  UNL1        0.0003
     14 C        2445.8100 2429.8300    0.0000 C.3     1  UNL1        0.0000
     15 C        2480.3500 2409.6800    0.0000 C.3     1  UNL1        0.0000
     16 C        2514.8900 2429.8300    0.0000 C.3     1  UNL1        0.0003
     17 C        2445.8100 2389.8300    0.0000 C.3     1  UNL1        0.0000
     18 C        2376.6300 2429.8300    0.0000 C.3     1  UNL1        0.0000
     19 C        2376.6300 2470.1200    0.0000 C.3     1  UNL1        0.0000
     20 C        2411.1700 2490.2700    0.0000 C.3     1  UNL1        0.0000
     21 C        2341.9900 2409.8800    0.0000 C.3     1  UNL1        0.0000
     22 C        2307.3400 2429.8300    0.0000 C.3     1  UNL1        0.0000
     23 C        2341.9900 2369.8800    0.0000 C.3     1  UNL1        0.0000
     24 C        2584.2700 2470.8200    0.0000 C.3     1  UNL1        0.0041
     25 C        2619.1100 2491.1700    0.0000 C.3     1  UNL1        0.0012
     26 C        2619.1100 2531.0700    0.0000 C.3     1  UNL1        0.0137
     27 C        2653.3500 2551.7100    0.0000 C.3     1  UNL1        0.0008
     28 C        2667.7400 2514.2900    0.0000 C.3     1  UNL1        0.0000
     29 C        2692.6600 2559.3500    0.0000 C.3     1  UNL1        0.0000
     30 C        2652.8500 2592.0100    0.0000 C.3     1  UNL1        0.0000
     31 C        2618.0100 2611.6600    0.0000 C.3     1  UNL1        0.0009
     32 C        2583.7700 2591.1200    0.0000 C.3     1  UNL1        0.0145
@<TRIPOS>BOND
     1     1     2   ar
     2     1     3   ar
     3     4     1    1
     4     4     5    1
     5     4    26    1
     6     4    32    1
     7     5    11    2
     8     6     5    1
     9     6     7    1
    10     6    24    1
    11     7     8    1
    12     7     9    1
    13     7    16    1
    14     9    12    1
    15     9    13    1
    16    10     9    1
    17    11    10    1
    18    13    14    1
    19    13    20    1
    20    14    17    1
    21    14    18    1
    22    15    14    1
    23    16    15    1
    24    18    19    1
    25    18    21    1
    26    20    19    1
    27    21    22    1
    28    21    23    1
    29    25    24    1
    30    26    25    1
    31    26    27    1
    32    27    28    1
    33    27    29    1
    34    27    30    1
    35    31    30    1
    36    32    31    1
