@<TRIPOS>MOLECULE
IMPHY007997
 33 35 0 0 0
SMALL
GASTEIGER

@<TRIPOS>ATOM
      1 O           9.3554    0.2078    0.0000 O.3     1  UNL1       -0.4948
      2 O           2.9789   -1.7403    0.0000 O.3     1  UNL1       -0.4951
      3 N           5.8507    1.1203    0.0000 N.ar    1  UNL1       -0.3540
      4 C           6.3507   -0.4185    0.0000 C.ar    1  UNL1        0.0080
      5 C           5.3507   -0.4185    0.0000 C.ar    1  UNL1        0.0109
      6 C           6.6597    0.5325    0.0000 C.ar    1  UNL1        0.0510
      7 C           5.0417    0.5325    0.0000 C.ar    1  UNL1        0.0477
      8 C           7.0356   -1.2033    0.0000 C.ar    1  UNL1       -0.0456
      9 C           8.0562   -0.9946    0.0000 C.ar    1  UNL1       -0.0081
     10 C           7.6751    0.7648    0.0000 C.ar    1  UNL1        0.0042
     11 C           4.6657   -1.2033    0.0000 C.ar    1  UNL1       -0.0102
     12 C           8.3780   -0.0039    0.0000 C.ar    1  UNL1        0.1250
     13 C           4.0263    0.7648    0.0000 C.ar    1  UNL1       -0.0343
     14 C           3.6452   -0.9946    0.0000 C.ar    1  UNL1        0.1208
     15 C           3.3233   -0.0039    0.0000 C.ar    1  UNL1       -0.0180
     16 C           8.7224   -1.7403    0.0000 C.3     1  UNL1       -0.0362
     17 C           9.6607    1.1600    0.0000 C.3     1  UNL1        0.0788
     18 C           2.0000   -1.5362    0.0000 C.3     1  UNL1        0.0788
     19 H           5.8507    1.7403    0.0000 H       1  UNL1        0.1659
     20 H           6.8372   -1.7907    0.0000 H       1  UNL1        0.0628
     21 H           7.8599    1.3566    0.0000 H       1  UNL1        0.0675
     22 H           4.8641   -1.7907    0.0000 H       1  UNL1        0.0661
     23 H           3.8415    1.3566    0.0000 H       1  UNL1        0.0639
     24 H           2.7174    0.1273    0.0000 H       1  UNL1        0.0655
     25 H           8.2601   -2.1534    0.0000 H       1  UNL1        0.0279
     26 H           9.1355   -2.2026    0.0000 H       1  UNL1        0.0279
     27 H           9.1848   -1.3272    0.0000 H       1  UNL1        0.0279
     28 H          10.2511    0.9707    0.0000 H       1  UNL1        0.0660
     29 H           9.8500    1.7504    0.0000 H       1  UNL1        0.0660
     30 H           9.0703    1.3493    0.0000 H       1  UNL1        0.0660
     31 H           2.1266   -0.9292    0.0000 H       1  UNL1        0.0660
     32 H           1.3931   -1.4096    0.0000 H       1  UNL1        0.0660
     33 H           1.8734   -2.1431    0.0000 H       1  UNL1        0.0660
@<TRIPOS>BOND
     1     1    12    1
     2     1    17    1
     3     2    14    1
     4     2    18    1
     5     3     6   ar
     6     3     7   ar
     7     3    19    1
     8     4     5   ar
     9     4     6   ar
    10     4     8   ar
    11     5     7   ar
    12     5    11   ar
    13     6    10   ar
    14     7    13   ar
    15     8     9   ar
    16     8    20    1
    17     9    12   ar
    18     9    16    1
    19    10    12   ar
    20    10    21    1
    21    11    14   ar
    22    11    22    1
    23    13    15   ar
    24    13    23    1
    25    14    15   ar
    26    15    24    1
    27    16    25    1
    28    16    26    1
    29    16    27    1
    30    17    28    1
    31    17    29    1
    32    17    30    1
    33    18    31    1
    34    18    32    1
    35    18    33    1
