@<TRIPOS>MOLECULE
IMPHY010040
 45 45 0 0 0
SMALL
GASTEIGER

@<TRIPOS>ATOM
      1 O           4.2690    0.1550    0.0000 O.3     1  UNL1       -0.3405
      2 O           6.0010    0.1550    0.0000 O.3     1  UNL1       -0.3398
      3 O           4.2690   -2.8450    0.0000 O.3     1  UNL1       -0.3864
      4 O           6.0010   -1.8450    0.0000 O.3     1  UNL1       -0.3841
      5 O           2.5369   -1.8450    0.0000 O.3     1  UNL1       -0.3865
      6 O           6.8671    2.6550    0.0000 O.3     1  UNL1       -0.3865
      7 O           2.5369    1.1550    0.0000 O.3     1  UNL1       -0.3924
      8 O           4.2690    1.1550    0.0000 O.3     1  UNL1       -0.3819
      9 O           7.7331    0.1550    0.0000 O.3     1  UNL1       -0.3869
     10 O           9.4651    1.1550    0.0000 O.3     1  UNL1       -0.3924
     11 O           4.2690    3.1550    0.0000 O.2     1  UNL1       -0.2982
     12 C           4.2690   -1.8450    0.0000 C.3     1  UNL1        0.1141
     13 C           5.1350   -1.3450    0.0000 C.3     1  UNL1        0.1341
     14 C           3.4030   -1.3450    0.0000 C.3     1  UNL1        0.1119
     15 C           5.1350   -0.3450    0.0000 C.3     1  UNL1        0.1885
     16 C           3.4030   -0.3450    0.0000 C.3     1  UNL1        0.1130
     17 C           6.0010    1.1550    0.0000 C.3     1  UNL1        0.1224
     18 C           6.8671    1.6550    0.0000 C.3     1  UNL1        0.1121
     19 C           2.5369    0.1550    0.0000 C.3     1  UNL1        0.0730
     20 C           5.1350    1.6550    0.0000 C.3     1  UNL1        0.1385
     21 C           7.7331    1.1550    0.0000 C.3     1  UNL1        0.1065
     22 C           8.5991    1.6550    0.0000 C.3     1  UNL1        0.0727
     23 C           5.1350    2.6550    0.0000 C.2     1  UNL1        0.1512
     24 H           4.8059   -2.1550    0.0000 H       1  UNL1        0.0648
     25 H           5.6720   -1.0350    0.0000 H       1  UNL1        0.0671
     26 H           3.4030   -1.9650    0.0000 H       1  UNL1        0.0647
     27 H           5.1350    0.2750    0.0000 H       1  UNL1        0.0938
     28 H           3.4030    0.2750    0.0000 H       1  UNL1        0.0647
     29 H           6.5380    0.8450    0.0000 H       1  UNL1        0.0654
     30 H           6.3301    1.9650    0.0000 H       1  UNL1        0.0647
     31 H           1.9264    0.2627    0.0000 H       1  UNL1        0.0584
     32 H           2.3249   -0.4276    0.0000 H       1  UNL1        0.0584
     33 H           5.1350    1.0350    0.0000 H       1  UNL1        0.0697
     34 H           8.2700    0.8450    0.0000 H       1  UNL1        0.0643
     35 H           3.7320   -3.1550    0.0000 H       1  UNL1        0.2100
     36 H           6.0010   -2.4650    0.0000 H       1  UNL1        0.2101
     37 H           2.0000   -1.5350    0.0000 H       1  UNL1        0.2100
     38 H           8.9976    2.1300    0.0000 H       1  UNL1        0.0584
     39 H           8.2006    2.1300    0.0000 H       1  UNL1        0.0584
     40 H           7.4040    2.9650    0.0000 H       1  UNL1        0.2100
     41 H           5.6720    2.9650    0.0000 H       1  UNL1        0.1055
     42 H           2.0000    1.4650    0.0000 H       1  UNL1        0.2095
     43 H           3.7320    1.4650    0.0000 H       1  UNL1        0.2105
     44 H           8.2700   -0.1550    0.0000 H       1  UNL1        0.2100
     45 H          10.0021    1.4650    0.0000 H       1  UNL1        0.2095
@<TRIPOS>BOND
     1     1    15    1
     2     1    16    1
     3    15     2    1
     4    17     2    1
     5    12     3    1
     6     3    35    1
     7    13     4    1
     8     4    36    1
     9    14     5    1
    10     5    37    1
    11    18     6    1
    12     6    40    1
    13     7    19    1
    14     7    42    1
    15    20     8    1
    16     8    43    1
    17    21     9    1
    18     9    44    1
    19    10    22    1
    20    10    45    1
    21    11    23    2
    22    12    13    1
    23    12    14    1
    24    12    24    1
    25    13    15    1
    26    13    25    1
    27    14    16    1
    28    14    26    1
    29    15    27    1
    30    16    19    1
    31    16    28    1
    32    17    18    1
    33    17    20    1
    34    17    29    1
    35    18    21    1
    36    18    30    1
    37    19    31    1
    38    19    32    1
    39    20    23    1
    40    20    33    1
    41    21    22    1
    42    21    34    1
    43    22    38    1
    44    22    39    1
    45    23    41    1
