@<TRIPOS>MOLECULE
IMPHY005247
 56 58 0 0 0
SMALL
GASTEIGER

@<TRIPOS>ATOM
      1 O           4.2690   -1.7477    0.0000 O.3     1  UNL1       -0.3405
      2 O           6.0010   -1.7477    0.0000 O.3     1  UNL1       -0.3484
      3 O           4.2690   -4.7477    0.0000 O.3     1  UNL1       -0.3864
      4 O           2.5369   -3.7477    0.0000 O.3     1  UNL1       -0.3865
      5 O           6.0010   -3.7477    0.0000 O.3     1  UNL1       -0.3841
      6 O           6.4084    4.4684    0.0000 O.3     1  UNL1       -0.3865
      7 O           9.4486    2.7132    0.0000 O.2     1  UNL1       -0.2917
      8 O           2.5369   -0.7477    0.0000 O.3     1  UNL1       -0.3924
      9 C           4.2690   -3.7477    0.0000 C.3     1  UNL1        0.1141
     10 C           3.4030   -3.2477    0.0000 C.3     1  UNL1        0.1119
     11 C           5.1350   -3.2477    0.0000 C.3     1  UNL1        0.1341
     12 C           3.4030   -2.2477    0.0000 C.3     1  UNL1        0.1130
     13 C           5.1350   -2.2477    0.0000 C.3     1  UNL1        0.1879
     14 C           8.0650    3.8272    0.0000 C.3     1  UNL1        0.0494
     15 C           7.0763    3.7241    0.0000 C.3     1  UNL1        0.0904
     16 C           6.8671    2.7523    0.0000 C.ar    1  UNL1       -0.0075
     17 C           7.7331    2.2523    0.0000 C.ar    1  UNL1        0.0266
     18 C           6.8671    0.7523    0.0000 C.ar    1  UNL1       -0.0387
     19 C           7.7331    1.2523    0.0000 C.ar    1  UNL1       -0.0361
     20 C           8.4701    2.9194    0.0000 C.2     1  UNL1        0.1693
     21 C           6.8671   -0.2477    0.0000 C.3     1  UNL1       -0.0035
     22 C           6.0010    1.2523    0.0000 C.ar    1  UNL1       -0.0466
     23 C           6.0010    2.2523    0.0000 C.ar    1  UNL1       -0.0522
     24 C           2.5369   -1.7477    0.0000 C.3     1  UNL1        0.0730
     25 C           6.0010   -0.7477    0.0000 C.3     1  UNL1        0.0547
     26 C           8.5650    4.6932    0.0000 C.3     1  UNL1       -0.0526
     27 C           8.5991    0.7523    0.0000 C.3     1  UNL1       -0.0388
     28 C           5.1350    0.7523    0.0000 C.3     1  UNL1       -0.0394
     29 H           4.8059   -4.0577    0.0000 H       1  UNL1        0.0648
     30 H           3.4030   -3.8677    0.0000 H       1  UNL1        0.0647
     31 H           5.6720   -2.9377    0.0000 H       1  UNL1        0.0671
     32 H           3.4030   -1.6277    0.0000 H       1  UNL1        0.0647
     33 H           5.1350   -1.6277    0.0000 H       1  UNL1        0.0937
     34 H           7.7275    4.3473    0.0000 H       1  UNL1        0.0407
     35 H           7.2992    4.3026    0.0000 H       1  UNL1        0.0651
     36 H           7.0791   -0.8303    0.0000 H       1  UNL1        0.0336
     37 H           7.4776   -0.1401    0.0000 H       1  UNL1        0.0336
     38 H           1.9264   -1.6401    0.0000 H       1  UNL1        0.0584
     39 H           2.3249   -2.3303    0.0000 H       1  UNL1        0.0584
     40 H           5.4641    2.5623    0.0000 H       1  UNL1        0.0624
     41 H           5.7890   -0.1651    0.0000 H       1  UNL1        0.0564
     42 H           5.3905   -0.8554    0.0000 H       1  UNL1        0.0564
     43 H           9.1019    4.3832    0.0000 H       1  UNL1        0.0237
     44 H           8.8750    5.2301    0.0000 H       1  UNL1        0.0237
     45 H           8.0280    5.0032    0.0000 H       1  UNL1        0.0237
     46 H           3.7320   -5.0577    0.0000 H       1  UNL1        0.2100
     47 H           8.2891    0.2153    0.0000 H       1  UNL1        0.0278
     48 H           9.1360    0.4423    0.0000 H       1  UNL1        0.0278
     49 H           8.9091    1.2892    0.0000 H       1  UNL1        0.0278
     50 H           2.0000   -3.4377    0.0000 H       1  UNL1        0.2100
     51 H           6.5380   -3.4377    0.0000 H       1  UNL1        0.2101
     52 H           4.8250    1.2892    0.0000 H       1  UNL1        0.0278
     53 H           4.5981    0.4423    0.0000 H       1  UNL1        0.0278
     54 H           5.4450    0.2153    0.0000 H       1  UNL1        0.0278
     55 H           6.6010    5.0577    0.0000 H       1  UNL1        0.2103
     56 H           2.0000   -0.4377    0.0000 H       1  UNL1        0.2095
@<TRIPOS>BOND
     1     1    12    1
     2     1    13    1
     3    13     2    1
     4     2    25    1
     5     9     3    1
     6     3    46    1
     7    10     4    1
     8     4    50    1
     9    11     5    1
    10     5    51    1
    11    15     6    1
    12     6    55    1
    13     7    20    2
    14     8    24    1
    15     8    56    1
    16     9    10    1
    17     9    11    1
    18     9    29    1
    19    10    12    1
    20    10    30    1
    21    11    13    1
    22    11    31    1
    23    12    24    1
    24    12    32    1
    25    13    33    1
    26    14    15    1
    27    14    20    1
    28    14    26    1
    29    14    34    1
    30    15    16    1
    31    15    35    1
    32    16    17   ar
    33    16    23   ar
    34    17    19   ar
    35    17    20    1
    36    18    19   ar
    37    18    21    1
    38    18    22   ar
    39    19    27    1
    40    21    25    1
    41    21    36    1
    42    21    37    1
    43    22    23   ar
    44    22    28    1
    45    23    40    1
    46    24    38    1
    47    24    39    1
    48    25    41    1
    49    25    42    1
    50    26    43    1
    51    26    44    1
    52    26    45    1
    53    27    47    1
    54    27    48    1
    55    27    49    1
    56    28    52    1
    57    28    53    1
    58    28    54    1
