@<TRIPOS>MOLECULE
IMPHY017371
 25 26 0 0 0
SMALL
GASTEIGER

@<TRIPOS>ATOM
      1 O           2.8660    1.8988    0.0000 O.2     1  UNL1       -0.2673
      2 N           4.5981    1.8988    0.0000 N.ar    1  UNL1       -0.2729
      3 N           6.1808    2.2352    0.0000 N.ar    1  UNL1       -0.2436
      4 C           2.8660   -1.1012    0.0000 C.ar    1  UNL1       -0.0249
      5 C           3.7320    1.3988    0.0000 C.2     1  UNL1        0.2564
      6 C           2.8660   -0.1012    0.0000 C.2     1  UNL1       -0.0495
      7 C           3.7320    0.3988    0.0000 C.2     1  UNL1        0.0039
      8 C           4.7026    2.8933    0.0000 C.ar    1  UNL1        0.0322
      9 C           2.0000   -1.6012    0.0000 C.ar    1  UNL1       -0.0546
     10 C           3.7320   -1.6012    0.0000 C.ar    1  UNL1       -0.0546
     11 C           5.5116    1.4921    0.0000 C.ar    1  UNL1        0.1027
     12 C           2.0000   -2.6012    0.0000 C.ar    1  UNL1       -0.0612
     13 C           3.7320   -2.6012    0.0000 C.ar    1  UNL1       -0.0612
     14 C           5.6808    3.1012    0.0000 C.ar    1  UNL1        0.0458
     15 C           2.8660   -3.1012    0.0000 C.ar    1  UNL1       -0.0617
     16 H           2.3291    0.2088    0.0000 H       1  UNL1        0.0625
     17 H           4.2690    0.0888    0.0000 H       1  UNL1        0.0672
     18 H           4.2419    3.3082    0.0000 H       1  UNL1        0.0829
     19 H           1.4631   -1.2912    0.0000 H       1  UNL1        0.0623
     20 H           4.2690   -1.2912    0.0000 H       1  UNL1        0.0623
     21 H           5.6405    0.8856    0.0000 H       1  UNL1        0.1033
     22 H           1.4631   -2.9112    0.0000 H       1  UNL1        0.0618
     23 H           4.2690   -2.9112    0.0000 H       1  UNL1        0.0618
     24 H           5.9329    3.6676    0.0000 H       1  UNL1        0.0845
     25 H           2.8660   -3.7212    0.0000 H       1  UNL1        0.0618
@<TRIPOS>BOND
     1     1     5    2
     2     2     5   am
     3     2     8   ar
     4     2    11   ar
     5     3    11   ar
     6     3    14   ar
     7     4     6    1
     8     4     9   ar
     9     4    10   ar
    10     5     7    1
    11     6     7    2
    12     6    16    1
    13     7    17    1
    14     8    14   ar
    15     8    18    1
    16     9    12   ar
    17     9    19    1
    18    10    13   ar
    19    10    20    1
    20    11    21    1
    21    12    15   ar
    22    12    22    1
    23    13    15   ar
    24    13    23    1
    25    14    24    1
    26    15    25    1
