@<TRIPOS>MOLECULE
IMPHY002825
 25 25 0 0 0
SMALL
GASTEIGER

@<TRIPOS>ATOM
      1 O           3.0000    2.3450    0.0000 O.3     1  UNL1       -0.3845
      2 C           3.0000    1.3450    0.0000 C.3     1  UNL1        0.0854
      3 C           3.0000    0.3450    0.0000 C.ar    1  UNL1       -0.0166
      4 C           4.0000    1.3450    0.0000 C.3     1  UNL1       -0.0321
      5 C           2.0000    1.3450    0.0000 C.3     1  UNL1       -0.0321
      6 C           2.1340   -0.1550    0.0000 C.ar    1  UNL1       -0.0556
      7 C           3.8660   -0.1550    0.0000 C.ar    1  UNL1       -0.0556
      8 C           3.0000   -1.6550    0.0000 C.ar    1  UNL1       -0.0504
      9 C           2.1340   -1.1550    0.0000 C.ar    1  UNL1       -0.0585
     10 C           3.8660   -1.1550    0.0000 C.ar    1  UNL1       -0.0585
     11 C           3.0000   -2.6550    0.0000 C.3     1  UNL1       -0.0397
     12 H           4.0000    0.7250    0.0000 H       1  UNL1        0.0260
     13 H           4.6200    1.3450    0.0000 H       1  UNL1        0.0260
     14 H           4.0000    1.9650    0.0000 H       1  UNL1        0.0260
     15 H           2.0000    1.9650    0.0000 H       1  UNL1        0.0260
     16 H           1.3800    1.3450    0.0000 H       1  UNL1        0.0260
     17 H           2.0000    0.7250    0.0000 H       1  UNL1        0.0260
     18 H           1.5970    0.1550    0.0000 H       1  UNL1        0.0621
     19 H           4.4030    0.1550    0.0000 H       1  UNL1        0.0621
     20 H           1.5970   -1.4650    0.0000 H       1  UNL1        0.0620
     21 H           4.4030   -1.4650    0.0000 H       1  UNL1        0.0620
     22 H           3.5369    2.6550    0.0000 H       1  UNL1        0.2106
     23 H           2.3800   -2.6550    0.0000 H       1  UNL1        0.0278
     24 H           3.0000   -3.2750    0.0000 H       1  UNL1        0.0278
     25 H           3.6200   -2.6550    0.0000 H       1  UNL1        0.0278
@<TRIPOS>BOND
     1     1     2    1
     2     1    22    1
     3     2     3    1
     4     2     4    1
     5     2     5    1
     6     3     6   ar
     7     3     7   ar
     8     4    12    1
     9     4    13    1
    10     4    14    1
    11     5    15    1
    12     5    16    1
    13     5    17    1
    14     6     9   ar
    15     6    18    1
    16     7    10   ar
    17     7    19    1
    18     8     9   ar
    19     8    10   ar
    20     8    11    1
    21     9    20    1
    22    10    21    1
    23    11    23    1
    24    11    24    1
    25    11    25    1
