@<TRIPOS>MOLECULE
IMPHY012968
 44 49 0 0 0
SMALL
GASTEIGER

@<TRIPOS>ATOM
      1 O           4.6744    3.7983    0.0000 O.3     1  UNL1       -0.4815
      2 O           2.9180    0.6441    0.0000 O.2     1  UNL1       -0.4547
      3 O           2.0000   -1.9043    0.0000 O.3     1  UNL1       -0.4836
      4 O           5.5740   -4.2205    0.0000 O.3     1  UNL1       -0.4526
      5 O           4.0684   -5.1052    0.0000 O.3     1  UNL1       -0.4525
      6 O           5.5161   -0.8559    0.0000 O.2     1  UNL1       -0.2864
      7 C           3.7348    4.3408    0.0000 C.3     1  UNL1        0.1235
      8 C           3.7841   -0.8559    0.0000 C.ar    1  UNL1        0.0745
      9 C           3.7680    2.1856    0.0000 C.ar    1  UNL1        0.0594
     10 C           3.7841    1.1441    0.0000 C.ar    1  UNL1        0.1496
     11 C           4.6501    0.6441    0.0000 C.ar    1  UNL1        0.0654
     12 C           2.9180   -0.3559    0.0000 C.ar    1  UNL1        0.1543
     13 C           4.6660    2.7134    0.0000 C.ar    1  UNL1        0.1324
     14 C           3.8001   -1.8974    0.0000 C.ar    1  UNL1        0.0345
     15 C           4.6501   -0.3559    0.0000 C.ar    1  UNL1        0.2007
     16 C           2.7993    3.7911    0.0000 C.2     1  UNL1       -0.0408
     17 C           2.8161    2.7062    0.0000 C.2     1  UNL1       -0.0478
     18 C           2.0080   -0.8627    0.0000 C.3     1  UNL1        0.1477
     19 C           2.9021   -2.4252    0.0000 C.ar    1  UNL1        0.1327
     20 C           5.5601    1.1510    0.0000 C.ar    1  UNL1       -0.0439
     21 C           3.2314    5.2049    0.0000 C.3     1  UNL1       -0.0215
     22 C           4.2314    5.2088    0.0000 C.3     1  UNL1       -0.0215
     23 C           5.5681    2.1926    0.0000 C.ar    1  UNL1       -0.0184
     24 C           4.7520   -2.4180    0.0000 C.ar    1  UNL1       -0.0047
     25 C           4.7688   -3.5029    0.0000 C.ar    1  UNL1        0.1670
     26 C           2.8937   -3.5101    0.0000 C.ar    1  UNL1        0.0262
     27 C           3.8334   -4.0526    0.0000 C.ar    1  UNL1        0.1697
     28 C           5.1420   -5.2088    0.0000 C.3     1  UNL1        0.2332
     29 H           2.2589    4.0949    0.0000 H       1  UNL1        0.0611
     30 H           1.8035   -0.2774    0.0000 H       1  UNL1        0.0779
     31 H           1.3964   -0.9641    0.0000 H       1  UNL1        0.0779
     32 H           2.2852    2.3859    0.0000 H       1  UNL1        0.0624
     33 H           6.0934    0.8348    0.0000 H       1  UNL1        0.0627
     34 H           3.7672    5.5170    0.0000 H       1  UNL1        0.0271
     35 H           2.9194    5.7407    0.0000 H       1  UNL1        0.0271
     36 H           2.6957    4.8929    0.0000 H       1  UNL1        0.0271
     37 H           4.7696    4.9008    0.0000 H       1  UNL1        0.0271
     38 H           4.5394    5.7469    0.0000 H       1  UNL1        0.0271
     39 H           3.6933    5.5167    0.0000 H       1  UNL1        0.0271
     40 H           6.1062    2.5005    0.0000 H       1  UNL1        0.0654
     41 H           5.2829   -2.0977    0.0000 H       1  UNL1        0.0663
     42 H           2.3556   -3.8180    0.0000 H       1  UNL1        0.0692
     43 H           5.0180   -5.8162    0.0000 H       1  UNL1        0.1166
     44 H           5.7331   -5.3960    0.0000 H       1  UNL1        0.1166
@<TRIPOS>BOND
     1     1     7    1
     2     1    13    1
     3     2    10   ar
     4     2    12   ar
     5     3    18    1
     6     3    19    1
     7     4    25    1
     8     4    28    1
     9     5    27    1
    10     5    28    1
    11     6    15    2
    12     7    16    1
    13     7    21    1
    14     7    22    1
    15     8    12   ar
    16     8    14    1
    17     8    15   ar
    18     9    10   ar
    19     9    13   ar
    20     9    17    1
    21    10    11   ar
    22    11    15   ar
    23    11    20   ar
    24    12    18    1
    25    13    23   ar
    26    14    19   ar
    27    14    24   ar
    28    16    17    2
    29    16    29    1
    30    17    32    1
    31    18    30    1
    32    18    31    1
    33    19    26   ar
    34    20    23   ar
    35    20    33    1
    36    21    34    1
    37    21    35    1
    38    21    36    1
    39    22    37    1
    40    22    38    1
    41    22    39    1
    42    23    40    1
    43    24    25   ar
    44    24    41    1
    45    25    27   ar
    46    26    27   ar
    47    26    42    1
    48    28    43    1
    49    28    44    1
