@<TRIPOS>MOLECULE
IMPHY006489
 31 32 0 0 0
SMALL
GASTEIGER

@<TRIPOS>ATOM
      1 O           2.5369   -0.9050    0.0000 O.3     1  UNL1       -0.5059
      2 O           4.2690   -3.9050    0.0000 O.3     1  UNL1       -0.5066
      3 O           3.4030    0.5950    0.0000 O.2     1  UNL1       -0.2872
      4 O           8.5991    3.5950    0.0000 O.3     1  UNL1       -0.5068
      5 C           4.2690   -0.9050    0.0000 C.ar    1  UNL1        0.0632
      6 C           6.0010    2.0950    0.0000 C.ar    1  UNL1       -0.0247
      7 C           3.4030   -1.4050    0.0000 C.ar    1  UNL1        0.1311
      8 C           4.2690    0.0950    0.0000 C.2     1  UNL1        0.1896
      9 C           5.1350   -1.4050    0.0000 C.ar    1  UNL1       -0.0440
     10 C           5.1350    1.5950    0.0000 C.2     1  UNL1       -0.0510
     11 C           5.1350    0.5950    0.0000 C.2     1  UNL1       -0.0137
     12 C           3.4030   -2.4050    0.0000 C.ar    1  UNL1        0.0220
     13 C           5.1350   -2.4050    0.0000 C.ar    1  UNL1       -0.0193
     14 C           4.2690   -2.9050    0.0000 C.ar    1  UNL1        0.1204
     15 C           6.0010    3.0950    0.0000 C.ar    1  UNL1       -0.0511
     16 C           6.8671    1.5950    0.0000 C.ar    1  UNL1       -0.0511
     17 C           6.8671    3.5950    0.0000 C.ar    1  UNL1       -0.0196
     18 C           7.7331    2.0950    0.0000 C.ar    1  UNL1       -0.0196
     19 C           7.7331    3.0950    0.0000 C.ar    1  UNL1        0.1169
     20 H           5.6720   -1.0950    0.0000 H       1  UNL1        0.0627
     21 H           4.5981    1.9050    0.0000 H       1  UNL1        0.0625
     22 H           5.6720    0.2850    0.0000 H       1  UNL1        0.0656
     23 H           2.8660   -2.7150    0.0000 H       1  UNL1        0.0691
     24 H           5.6720   -2.7150    0.0000 H       1  UNL1        0.0654
     25 H           5.4641    3.4050    0.0000 H       1  UNL1        0.0625
     26 H           6.8671    0.9750    0.0000 H       1  UNL1        0.0625
     27 H           6.8671    4.2150    0.0000 H       1  UNL1        0.0654
     28 H           8.2700    1.7850    0.0000 H       1  UNL1        0.0654
     29 H           2.0000   -1.2150    0.0000 H       1  UNL1        0.2922
     30 H           4.8059   -4.2150    0.0000 H       1  UNL1        0.2921
     31 H           8.5991    4.2150    0.0000 H       1  UNL1        0.2921
@<TRIPOS>BOND
     1     1     7    1
     2     1    29    1
     3     2    14    1
     4     2    30    1
     5     3     8    2
     6     4    19    1
     7     4    31    1
     8     5     7   ar
     9     5     8    1
    10     5     9   ar
    11     6    10    1
    12     6    15   ar
    13     6    16   ar
    14     7    12   ar
    15     8    11    1
    16     9    13   ar
    17     9    20    1
    18    10    11    2
    19    10    21    1
    20    11    22    1
    21    12    14   ar
    22    12    23    1
    23    13    14   ar
    24    13    24    1
    25    15    17   ar
    26    15    25    1
    27    16    18   ar
    28    16    26    1
    29    17    19   ar
    30    17    27    1
    31    18    19   ar
    32    18    28    1
