@<TRIPOS>MOLECULE
IMPHY007301
 26 27 0 0 0
SMALL
GASTEIGER

@<TRIPOS>ATOM
      1 N           2.9511    1.3184    0.0000 N.3     1  UNL1       -0.2984
      2 N           4.6261   -1.7694    0.0000 N.ar    1  UNL1       -0.2629
      3 C           3.7601    0.7306    0.0000 C.3     1  UNL1        0.0368
      4 C           4.5691    1.3184    0.0000 C.3     1  UNL1       -0.0320
      5 C           4.2601    2.2694    0.0000 C.3     1  UNL1       -0.0385
      6 C           3.2601    2.2694    0.0000 C.3     1  UNL1       -0.0008
      7 C           3.7601   -0.2694    0.0000 C.ar    1  UNL1       -0.0122
      8 C           2.0000    1.0094    0.0000 C.3     1  UNL1       -0.0122
      9 C           2.8940   -0.7694    0.0000 C.ar    1  UNL1       -0.0542
     10 C           4.6261   -0.7694    0.0000 C.ar    1  UNL1        0.0322
     11 C           2.8940   -1.7694    0.0000 C.ar    1  UNL1       -0.0433
     12 C           3.7601   -2.2694    0.0000 C.ar    1  UNL1        0.0276
     13 H           4.3125    0.4491    0.0000 H       1  UNL1        0.0512
     14 H           4.8791    0.7814    0.0000 H       1  UNL1        0.0284
     15 H           5.1355    1.5705    0.0000 H       1  UNL1        0.0284
     16 H           4.8665    2.3983    0.0000 H       1  UNL1        0.0278
     17 H           4.1953    2.8860    0.0000 H       1  UNL1        0.0278
     18 H           3.3249    2.8860    0.0000 H       1  UNL1        0.0427
     19 H           2.6536    2.3983    0.0000 H       1  UNL1        0.0427
     20 H           1.8084    1.5990    0.0000 H       1  UNL1        0.0391
     21 H           1.4103    0.8178    0.0000 H       1  UNL1        0.0391
     22 H           2.1916    0.4197    0.0000 H       1  UNL1        0.0391
     23 H           2.3571   -0.4594    0.0000 H       1  UNL1        0.0622
     24 H           5.1630   -0.4594    0.0000 H       1  UNL1        0.0833
     25 H           2.3571   -2.0794    0.0000 H       1  UNL1        0.0633
     26 H           3.7601   -2.8894    0.0000 H       1  UNL1        0.0829
@<TRIPOS>BOND
     1     1     3    1
     2     1     6    1
     3     1     8    1
     4     2    10   ar
     5     2    12   ar
     6     3     4    1
     7     3     7    1
     8     3    13    1
     9     4     5    1
    10     4    14    1
    11     4    15    1
    12     5     6    1
    13     5    16    1
    14     5    17    1
    15     6    18    1
    16     6    19    1
    17     7     9   ar
    18     7    10   ar
    19     8    20    1
    20     8    21    1
    21     8    22    1
    22     9    11   ar
    23     9    23    1
    24    10    24    1
    25    11    12   ar
    26    11    25    1
    27    12    26    1
