@<TRIPOS>MOLECULE
IMPHY011948
 44 48 0 0 0
SMALL
GASTEIGER

@<TRIPOS>ATOM
      1 O           5.1660   -1.4890    0.0000 O.3     1  UNL1       -0.4560
      2 O           4.3009    2.9742    0.0000 O.3     1  UNL1       -0.4536
      3 O           6.4022   -0.9125    0.0000 O.2     1  UNL1       -0.2502
      4 O           2.7696    3.8368    0.0000 O.2     1  UNL1       -0.2453
      5 O           3.0782   -3.8368    0.0000 O.2     1  UNL1       -0.4706
      6 C           4.6660    0.0499    0.0000 C.3     1  UNL1        0.0807
      7 C           3.8000    0.5499    0.0000 C.3     1  UNL1        0.0004
      8 C           5.5321    0.5499    0.0000 C.3     1  UNL1       -0.0238
      9 C           3.8000    1.5498    0.0000 C.2     1  UNL1       -0.0155
     10 C           3.8570   -0.5379    0.0000 C.3     1  UNL1        0.0053
     11 C           4.6660    2.0498    0.0000 C.3     1  UNL1        0.1258
     12 C           5.5321    1.5498    0.0000 C.3     1  UNL1       -0.0081
     13 C           2.9061    0.0152    0.0000 C.3     1  UNL1       -0.0450
     14 C           5.4751   -0.5379    0.0000 C.2     1  UNL1        0.3149
     15 C           2.9061    2.0845    0.0000 C.2     1  UNL1        0.0396
     16 C           4.1660   -1.4890    0.0000 C.3     1  UNL1        0.1320
     17 C           2.0000    0.5290    0.0000 C.3     1  UNL1       -0.0483
     18 C           2.0000    1.5707    0.0000 C.3     1  UNL1       -0.0208
     19 C           6.5169    0.7235    0.0000 C.3     1  UNL1       -0.0613
     20 C           3.3073    2.9937    0.0000 C.2     1  UNL1        0.3358
     21 C           3.5782   -2.2980    0.0000 C.ar    1  UNL1        0.0304
     22 C           2.5782   -2.2980    0.0000 C.ar    1  UNL1       -0.0172
     23 C           3.8873   -3.2491    0.0000 C.ar    1  UNL1        0.0983
     24 C           2.2692   -3.2491    0.0000 C.ar    1  UNL1        0.0921
     25 H           3.8066   -0.3001    0.0000 H       1  UNL1        0.0358
     26 H           5.7441   -0.0328    0.0000 H       1  UNL1        0.0310
     27 H           3.5470   -0.0010    0.0000 H       1  UNL1        0.0315
     28 H           3.2906   -0.7901    0.0000 H       1  UNL1        0.0315
     29 H           5.3097    2.6050    0.0000 H       1  UNL1        0.0782
     30 H           6.1426    1.4422    0.0000 H       1  UNL1        0.0307
     31 H           5.7441    2.1325    0.0000 H       1  UNL1        0.0307
     32 H           2.5124   -0.4638    0.0000 H       1  UNL1        0.0271
     33 H           3.3107   -0.4546    0.0000 H       1  UNL1        0.0271
     34 H           3.5537   -1.3920    0.0000 H       1  UNL1        0.0786
     35 H           1.3891    0.6351    0.0000 H       1  UNL1        0.0269
     36 H           1.7909   -0.0547    0.0000 H       1  UNL1        0.0269
     37 H           1.7909    2.1544    0.0000 H       1  UNL1        0.0315
     38 H           1.3891    1.4646    0.0000 H       1  UNL1        0.0315
     39 H           6.6245    0.1129    0.0000 H       1  UNL1        0.0233
     40 H           7.1274    0.8312    0.0000 H       1  UNL1        0.0233
     41 H           6.4092    1.3341    0.0000 H       1  UNL1        0.0233
     42 H           2.2138   -1.7964    0.0000 H       1  UNL1        0.0653
     43 H           4.4769   -3.4406    0.0000 H       1  UNL1        0.1033
     44 H           1.6796   -3.4406    0.0000 H       1  UNL1        0.1029
@<TRIPOS>BOND
     1     1    14    1
     2     1    16    1
     3     2    11    1
     4     2    20    1
     5     3    14    2
     6     4    20    2
     7     5    23   ar
     8     5    24   ar
     9     6     7    1
    10     6     8    1
    11     6    10    1
    12     6    14    1
    13     7     9    1
    14     7    13    1
    15     7    25    1
    16     8    12    1
    17     8    19    1
    18     8    26    1
    19     9    11    1
    20     9    15    2
    21    10    16    1
    22    10    27    1
    23    10    28    1
    24    11    12    1
    25    11    29    1
    26    12    30    1
    27    12    31    1
    28    13    17    1
    29    13    32    1
    30    13    33    1
    31    15    18    1
    32    15    20    1
    33    16    21    1
    34    16    34    1
    35    17    18    1
    36    17    35    1
    37    17    36    1
    38    18    37    1
    39    18    38    1
    40    19    39    1
    41    19    40    1
    42    19    41    1
    43    21    22   ar
    44    21    23   ar
    45    22    24   ar
    46    22    42    1
    47    23    43    1
    48    24    44    1
