@<TRIPOS>MOLECULE
IMPHY016412
 25 25 0 0 0
SMALL
GASTEIGER

@<TRIPOS>ATOM
      1 O           2.8660   -2.5950    0.0000 O.3     1  UNL1       -0.5068
      2 C           2.8660    1.4050    0.0000 C.3     1  UNL1       -0.0189
      3 C           3.7320    1.9050    0.0000 C.3     1  UNL1       -0.0493
      4 C           2.8660    0.4050    0.0000 C.ar    1  UNL1       -0.0443
      5 C           2.0000    1.9050    0.0000 C.3     1  UNL1       -0.0584
      6 C           3.7320    2.9050    0.0000 C.3     1  UNL1       -0.0647
      7 C           3.7320   -0.0950    0.0000 C.ar    1  UNL1       -0.0549
      8 C           2.0000   -0.0950    0.0000 C.ar    1  UNL1       -0.0549
      9 C           3.7320   -1.0950    0.0000 C.ar    1  UNL1       -0.0199
     10 C           2.0000   -1.0950    0.0000 C.ar    1  UNL1       -0.0199
     11 C           2.8660   -1.5950    0.0000 C.ar    1  UNL1        0.1169
     12 H           2.8660    2.0250    0.0000 H       1  UNL1        0.0346
     13 H           3.9441    1.3224    0.0000 H       1  UNL1        0.0268
     14 H           4.3426    2.0127    0.0000 H       1  UNL1        0.0268
     15 H           2.3100    2.4419    0.0000 H       1  UNL1        0.0236
     16 H           1.4631    2.2150    0.0000 H       1  UNL1        0.0236
     17 H           1.6900    1.3681    0.0000 H       1  UNL1        0.0236
     18 H           4.3520    2.9050    0.0000 H       1  UNL1        0.0230
     19 H           3.7320    3.5250    0.0000 H       1  UNL1        0.0230
     20 H           3.1120    2.9050    0.0000 H       1  UNL1        0.0230
     21 H           4.2690    0.2150    0.0000 H       1  UNL1        0.0622
     22 H           1.4631    0.2150    0.0000 H       1  UNL1        0.0622
     23 H           4.2690   -1.4050    0.0000 H       1  UNL1        0.0654
     24 H           1.4631   -1.4050    0.0000 H       1  UNL1        0.0654
     25 H           2.3291   -2.9050    0.0000 H       1  UNL1        0.2921
@<TRIPOS>BOND
     1     1    11    1
     2     1    25    1
     3     2     3    1
     4     2     4    1
     5     2     5    1
     6     2    12    1
     7     3     6    1
     8     3    13    1
     9     3    14    1
    10     4     7   ar
    11     4     8   ar
    12     5    15    1
    13     5    16    1
    14     5    17    1
    15     6    18    1
    16     6    19    1
    17     6    20    1
    18     7     9   ar
    19     7    21    1
    20     8    10   ar
    21     8    22    1
    22     9    11   ar
    23     9    23    1
    24    10    11   ar
    25    10    24    1
