@<TRIPOS>MOLECULE
IMPHY010285
 37 40 0 0 0
SMALL
GASTEIGER

@<TRIPOS>ATOM
      1 O           2.4967    2.5366    0.0000 O.3     1  UNL1       -0.3835
      2 N           4.8001    1.6656    0.0000 N.3     1  UNL1       -0.2951
      3 N           5.7881   -2.5246    0.0000 N.ar    1  UNL1       -0.3604
      4 C           4.7840    0.6240    0.0000 C.3     1  UNL1        0.0398
      5 C           3.9180    0.1240    0.0000 C.2     1  UNL1       -0.0234
      6 C           5.6501    0.1240    0.0000 C.3     1  UNL1       -0.0059
      7 C           3.0000    1.6725    0.0000 C.3     1  UNL1        0.0946
      8 C           3.9021    2.1933    0.0000 C.3     1  UNL1        0.0314
      9 C           3.9180   -0.8760    0.0000 C.ar    1  UNL1       -0.0111
     10 C           5.6501   -0.8760    0.0000 C.ar    1  UNL1       -0.0200
     11 C           3.0080    0.6309    0.0000 C.2     1  UNL1       -0.0466
     12 C           4.7840   -1.3760    0.0000 C.ar    1  UNL1        0.0103
     13 C           4.8001   -2.4175    0.0000 C.ar    1  UNL1        0.0473
     14 C           5.6719    2.1555    0.0000 C.3     1  UNL1       -0.0121
     15 C           2.0000    1.6686    0.0000 C.3     1  UNL1       -0.0312
     16 C           6.2680   -1.6543    0.0000 C.ar    1  UNL1        0.0060
     17 C           3.0080   -1.3828    0.0000 C.ar    1  UNL1       -0.0536
     18 C           3.9021   -2.9452    0.0000 C.ar    1  UNL1       -0.0378
     19 C           3.0000   -2.4244    0.0000 C.ar    1  UNL1       -0.0592
     20 H           5.5234    1.0434    0.0000 H       1  UNL1        0.0515
     21 H           6.2607    0.0164    0.0000 H       1  UNL1        0.0332
     22 H           5.8621    0.7066    0.0000 H       1  UNL1        0.0332
     23 H           4.3030    2.6662    0.0000 H       1  UNL1        0.0458
     24 H           3.5048    2.6693    0.0000 H       1  UNL1        0.0458
     25 H           2.4747    0.3147    0.0000 H       1  UNL1        0.0604
     26 H           5.9756    1.6150    0.0000 H       1  UNL1        0.0391
     27 H           6.2123    2.4593    0.0000 H       1  UNL1        0.0391
     28 H           5.3681    2.6960    0.0000 H       1  UNL1        0.0391
     29 H           1.9976    2.2886    0.0000 H       1  UNL1        0.0261
     30 H           1.3800    1.6662    0.0000 H       1  UNL1        0.0261
     31 H           2.0024    1.0486    0.0000 H       1  UNL1        0.0261
     32 H           6.8858   -1.6026    0.0000 H       1  UNL1        0.0810
     33 H           2.4747   -1.0666    0.0000 H       1  UNL1        0.0624
     34 H           6.0741   -3.0747    0.0000 H       1  UNL1        0.1653
     35 H           2.8046    3.0747    0.0000 H       1  UNL1        0.2106
     36 H           3.9045   -3.5652    0.0000 H       1  UNL1        0.0638
     37 H           2.4619   -2.7323    0.0000 H       1  UNL1        0.0618
@<TRIPOS>BOND
     1     7     1    1
     2     1    35    1
     3     2     4    1
     4     2     8    1
     5     2    14    1
     6     3    13   ar
     7     3    16   ar
     8     3    34    1
     9     4     5    1
    10     4     6    1
    11     4    20    1
    12     5     9    1
    13     5    11    2
    14     6    10    1
    15     6    21    1
    16     6    22    1
    17     7     8    1
    18     7    11    1
    19     7    15    1
    20     8    23    1
    21     8    24    1
    22     9    12   ar
    23     9    17   ar
    24    10    12   ar
    25    10    16   ar
    26    11    25    1
    27    12    13   ar
    28    13    18   ar
    29    14    26    1
    30    14    27    1
    31    14    28    1
    32    15    29    1
    33    15    30    1
    34    15    31    1
    35    16    32    1
    36    17    19   ar
    37    17    33    1
    38    18    19   ar
    39    18    36    1
    40    19    37    1
