@<TRIPOS>MOLECULE
IMPHY011512
 58 57 0 0 0
SMALL
GASTEIGER

@<TRIPOS>ATOM
      1 O          15.3564    0.8175    0.0000 O.3     1  UNL1       -0.3563
      2 O          16.3564   -0.9145    0.0000 O.3     1  UNL1       -0.3563
      3 O          17.5885   -0.0485    0.0000 O.3     1  UNL1       -0.4769
      4 O          16.7224    1.4515    0.0000 O.2     1  UNL1       -0.2449
      5 C           9.7942   -0.5485    0.0000 C.3     1  UNL1       -0.0531
      6 C           8.9282   -0.0485    0.0000 C.3     1  UNL1       -0.0531
      7 C          10.6603   -0.0485    0.0000 C.3     1  UNL1       -0.0531
      8 C           8.0622   -0.5485    0.0000 C.3     1  UNL1       -0.0531
      9 C          11.5263   -0.5485    0.0000 C.3     1  UNL1       -0.0531
     10 C           7.1962   -0.0485    0.0000 C.3     1  UNL1       -0.0531
     11 C          12.3923   -0.0485    0.0000 C.3     1  UNL1       -0.0531
     12 C           6.3301   -0.5485    0.0000 C.3     1  UNL1       -0.0531
     13 C          13.2583   -0.5485    0.0000 C.3     1  UNL1       -0.0529
     14 C           5.4641   -0.0485    0.0000 C.3     1  UNL1       -0.0531
     15 C          14.1244   -0.0485    0.0000 C.3     1  UNL1       -0.0476
     16 C           4.5981   -0.5485    0.0000 C.3     1  UNL1       -0.0531
     17 C          14.9904   -0.5485    0.0000 C.3     1  UNL1        0.0123
     18 C           3.7320   -0.0485    0.0000 C.3     1  UNL1       -0.0533
     19 C          15.8564   -0.0485    0.0000 C.3     1  UNL1        0.2651
     20 C           2.8660   -0.5485    0.0000 C.3     1  UNL1       -0.0559
     21 C           2.0000   -0.0485    0.0000 C.3     1  UNL1       -0.0653
     22 C          16.7224    0.4515    0.0000 C.2     1  UNL1        0.3648
     23 H           9.3957   -1.0235    0.0000 H       1  UNL1        0.0265
     24 H          10.1928   -1.0235    0.0000 H       1  UNL1        0.0265
     25 H           9.3267    0.4264    0.0000 H       1  UNL1        0.0265
     26 H           8.5297    0.4264    0.0000 H       1  UNL1        0.0265
     27 H          11.0588    0.4264    0.0000 H       1  UNL1        0.0265
     28 H          10.2617    0.4264    0.0000 H       1  UNL1        0.0265
     29 H           7.6636   -1.0235    0.0000 H       1  UNL1        0.0265
     30 H           8.4607   -1.0235    0.0000 H       1  UNL1        0.0265
     31 H          11.1278   -1.0235    0.0000 H       1  UNL1        0.0265
     32 H          11.9248   -1.0235    0.0000 H       1  UNL1        0.0265
     33 H           7.5947    0.4264    0.0000 H       1  UNL1        0.0265
     34 H           6.7976    0.4264    0.0000 H       1  UNL1        0.0265
     35 H          12.7908    0.4264    0.0000 H       1  UNL1        0.0265
     36 H          11.9938    0.4264    0.0000 H       1  UNL1        0.0265
     37 H           5.9316   -1.0235    0.0000 H       1  UNL1        0.0265
     38 H           6.7287   -1.0235    0.0000 H       1  UNL1        0.0265
     39 H          12.8598   -1.0235    0.0000 H       1  UNL1        0.0265
     40 H          13.6569   -1.0235    0.0000 H       1  UNL1        0.0265
     41 H           5.8626    0.4264    0.0000 H       1  UNL1        0.0265
     42 H           5.0656    0.4264    0.0000 H       1  UNL1        0.0265
     43 H          14.5229    0.4264    0.0000 H       1  UNL1        0.0267
     44 H          13.7258    0.4264    0.0000 H       1  UNL1        0.0267
     45 H           4.1996   -1.0235    0.0000 H       1  UNL1        0.0265
     46 H           4.9966   -1.0235    0.0000 H       1  UNL1        0.0265
     47 H          14.5919   -1.0235    0.0000 H       1  UNL1        0.0323
     48 H          15.3889   -1.0235    0.0000 H       1  UNL1        0.0323
     49 H           4.1306    0.4264    0.0000 H       1  UNL1        0.0265
     50 H           3.3335    0.4264    0.0000 H       1  UNL1        0.0265
     51 H           2.4675   -1.0235    0.0000 H       1  UNL1        0.0263
     52 H           3.2646   -1.0235    0.0000 H       1  UNL1        0.0263
     53 H           2.3100    0.4884    0.0000 H       1  UNL1        0.0230
     54 H           1.4631    0.2615    0.0000 H       1  UNL1        0.0230
     55 H           1.6900   -0.5855    0.0000 H       1  UNL1        0.0230
     56 H          14.7364    0.8175    0.0000 H       1  UNL1        0.2133
     57 H          16.0464   -1.4515    0.0000 H       1  UNL1        0.2133
     58 H          18.1254    0.2615    0.0000 H       1  UNL1        0.2952
@<TRIPOS>BOND
     1     1    19    1
     2     1    56    1
     3     2    19    1
     4     2    57    1
     5     3    22    1
     6     3    58    1
     7     4    22    2
     8     5     6    1
     9     5     7    1
    10     5    23    1
    11     5    24    1
    12     6     8    1
    13     6    25    1
    14     6    26    1
    15     7     9    1
    16     7    27    1
    17     7    28    1
    18     8    10    1
    19     8    29    1
    20     8    30    1
    21     9    11    1
    22     9    31    1
    23     9    32    1
    24    10    12    1
    25    10    33    1
    26    10    34    1
    27    11    13    1
    28    11    35    1
    29    11    36    1
    30    12    14    1
    31    12    37    1
    32    12    38    1
    33    13    15    1
    34    13    39    1
    35    13    40    1
    36    14    16    1
    37    14    41    1
    38    14    42    1
    39    15    17    1
    40    15    43    1
    41    15    44    1
    42    16    18    1
    43    16    45    1
    44    16    46    1
    45    17    19    1
    46    17    47    1
    47    17    48    1
    48    18    20    1
    49    18    49    1
    50    18    50    1
    51    19    22    1
    52    20    21    1
    53    20    51    1
    54    20    52    1
    55    21    53    1
    56    21    54    1
    57    21    55    1
