@<TRIPOS>MOLECULE
IMPHY000872
 129 134 0 0 0
SMALL
GASTEIGER

@<TRIPOS>ATOM
      1 O          13.7953    4.6356    0.0000 O.3     1  UNL1       -0.3125
      2 O          12.7953    5.6356    0.0000 O.3     1  UNL1       -0.3362
      3 O          12.0632    4.6356    0.0000 O.3     1  UNL1       -0.3404
      4 O           7.7331    4.1356    0.0000 O.3     1  UNL1       -0.3405
      5 O           9.4651    4.1356    0.0000 O.3     1  UNL1       -0.3460
      6 O          15.0553    6.8956    0.0000 O.3     1  UNL1       -0.3837
      7 O           5.1350    1.6356    0.0000 O.3     1  UNL1       -0.3405
      8 O          13.2953    8.1744    0.0000 O.3     1  UNL1       -0.3864
      9 O           6.0010    3.1356    0.0000 O.3     1  UNL1       -0.3460
     10 O           6.0010   -1.8644    0.0000 O.3     1  UNL1       -0.3405
     11 O          13.7953    2.6356    0.0000 O.3     1  UNL1       -0.3841
     12 O          10.3312    2.6356    0.0000 O.3     1  UNL1       -0.3865
     13 O          12.0632    1.6356    0.0000 O.3     1  UNL1       -0.3864
     14 O           5.1350   -0.3644    0.0000 O.3     1  UNL1       -0.3460
     15 O          15.4895    5.9957    0.0000 O.3     1  UNL1       -0.3896
     16 O           6.8671   -4.3644    0.0000 O.3     1  UNL1       -0.3460
     17 O           6.0010    6.1356    0.0000 O.3     1  UNL1       -0.3865
     18 O           9.4651    6.1356    0.0000 O.3     1  UNL1       -0.3841
     19 O           7.7331    7.1356    0.0000 O.3     1  UNL1       -0.3864
     20 O           7.7331   -5.8644    0.0000 O.3     1  UNL1       -0.3405
     21 O           2.5369    1.1356    0.0000 O.3     1  UNL1       -0.3865
     22 O           2.5369    3.1356    0.0000 O.3     1  UNL1       -0.3864
     23 O           4.2690    4.1356    0.0000 O.3     1  UNL1       -0.3841
     24 O          11.3273    7.8738    0.0000 O.3     1  UNL1       -0.3924
     25 O           5.1350   -4.3644    0.0000 O.3     1  UNL1       -0.3865
     26 O           3.4030   -3.3644    0.0000 O.3     1  UNL1       -0.3864
     27 O           3.4030   -1.3644    0.0000 O.3     1  UNL1       -0.3841
     28 O           8.5991   -3.3644    0.0000 O.3     1  UNL1       -0.3841
     29 O          10.3312   -4.3644    0.0000 O.3     1  UNL1       -0.3864
     30 O          10.3312   -6.3644    0.0000 O.3     1  UNL1       -0.3865
     31 O           7.7331   -7.8644    0.0000 O.3     1  UNL1       -0.3924
     32 C          13.7953    5.6356    0.0000 C.3     1  UNL1        0.2252
     33 C          14.1043    6.5866    0.0000 C.3     1  UNL1        0.1395
     34 C          13.2953    7.1744    0.0000 C.3     1  UNL1        0.1145
     35 C          12.9292    4.1356    0.0000 C.3     1  UNL1        0.1912
     36 C          12.4862    6.5866    0.0000 C.3     1  UNL1        0.1134
     37 C          12.9292    3.1356    0.0000 C.3     1  UNL1        0.1342
     38 C          11.1972    4.1356    0.0000 C.3     1  UNL1        0.1134
     39 C          11.1972    3.1356    0.0000 C.3     1  UNL1        0.1119
     40 C          12.0632    2.6356    0.0000 C.3     1  UNL1        0.1141
     41 C          14.7463    5.3266    0.0000 C.3     1  UNL1        0.1009
     42 C           6.8671    4.6356    0.0000 C.3     1  UNL1        0.1134
     43 C          10.3312    4.6356    0.0000 C.3     1  UNL1        0.0796
     44 C           8.5991    4.6356    0.0000 C.3     1  UNL1        0.1880
     45 C           6.8671    5.6356    0.0000 C.3     1  UNL1        0.1119
     46 C           8.5991    5.6356    0.0000 C.3     1  UNL1        0.1341
     47 C           7.7331    6.1356    0.0000 C.3     1  UNL1        0.1141
     48 C           4.2690    1.1356    0.0000 C.3     1  UNL1        0.1134
     49 C           3.4030    1.6356    0.0000 C.3     1  UNL1        0.1119
     50 C           3.4030    2.6356    0.0000 C.3     1  UNL1        0.1141
     51 C          11.5352    6.8956    0.0000 C.3     1  UNL1        0.0730
     52 C           5.1350    2.6356    0.0000 C.3     1  UNL1        0.1880
     53 C           4.2690    3.1356    0.0000 C.3     1  UNL1        0.1341
     54 C           6.0010   -2.8644    0.0000 C.3     1  UNL1        0.1134
     55 C           5.1350   -3.3644    0.0000 C.3     1  UNL1        0.1119
     56 C           4.2690   -2.8644    0.0000 C.3     1  UNL1        0.1141
     57 C           4.2690   -1.8644    0.0000 C.3     1  UNL1        0.1341
     58 C           5.1350   -1.3644    0.0000 C.3     1  UNL1        0.1880
     59 C           6.0010    4.1356    0.0000 C.3     1  UNL1        0.0796
     60 C           4.2690    0.1356    0.0000 C.3     1  UNL1        0.0796
     61 C           6.8671   -3.3644    0.0000 C.3     1  UNL1        0.0796
     62 C           7.7331   -4.8644    0.0000 C.3     1  UNL1        0.1880
     63 C           8.5991   -4.3644    0.0000 C.3     1  UNL1        0.1341
     64 C           9.4651   -4.8644    0.0000 C.3     1  UNL1        0.1141
     65 C           9.4651   -5.8644    0.0000 C.3     1  UNL1        0.1119
     66 C           8.5991   -6.3644    0.0000 C.3     1  UNL1        0.1130
     67 C           8.5991   -7.3644    0.0000 C.3     1  UNL1        0.0730
     68 H          14.5427    6.1482    0.0000 H       1  UNL1        0.0675
     69 H          13.8477    7.4559    0.0000 H       1  UNL1        0.0648
     70 H          13.4662    3.8256    0.0000 H       1  UNL1        0.0939
     71 H          12.0478    6.1482    0.0000 H       1  UNL1        0.0647
     72 H          11.1972    4.7556    0.0000 H       1  UNL1        0.0647
     73 H          12.9292    2.5156    0.0000 H       1  UNL1        0.0671
     74 H          10.6603    3.4456    0.0000 H       1  UNL1        0.0647
     75 H          11.5263    2.3256    0.0000 H       1  UNL1        0.0648
     76 H          14.4552    4.7791    0.0000 H       1  UNL1        0.0612
     77 H          15.2349    4.9448    0.0000 H       1  UNL1        0.0612
     78 H           6.8671    4.0156    0.0000 H       1  UNL1        0.0647
     79 H          10.7297    5.1105    0.0000 H       1  UNL1        0.0587
     80 H           9.9326    5.1105    0.0000 H       1  UNL1        0.0587
     81 H           8.5991    4.0156    0.0000 H       1  UNL1        0.0937
     82 H           6.8671    6.2556    0.0000 H       1  UNL1        0.0647
     83 H           8.5991    6.2556    0.0000 H       1  UNL1        0.0671
     84 H           8.2700    6.4456    0.0000 H       1  UNL1        0.0648
     85 H           4.8059    0.8256    0.0000 H       1  UNL1        0.0647
     86 H           3.4030    1.0156    0.0000 H       1  UNL1        0.0647
     87 H           3.4030    3.2556    0.0000 H       1  UNL1        0.0648
     88 H           5.1350    3.2556    0.0000 H       1  UNL1        0.0937
     89 H           3.7320    3.4456    0.0000 H       1  UNL1        0.0671
     90 H          10.9156    6.8740    0.0000 H       1  UNL1        0.0584
     91 H          11.4489    6.2817    0.0000 H       1  UNL1        0.0584
     92 H           6.5380   -2.5544    0.0000 H       1  UNL1        0.0647
     93 H           4.5981   -3.6744    0.0000 H       1  UNL1        0.0647
     94 H           3.7320   -2.5544    0.0000 H       1  UNL1        0.0648
     95 H           4.2690   -1.2444    0.0000 H       1  UNL1        0.0671
     96 H           5.6720   -1.0544    0.0000 H       1  UNL1        0.0937
     97 H           5.7890    4.7182    0.0000 H       1  UNL1        0.0587
     98 H           5.3905    4.0279    0.0000 H       1  UNL1        0.0587
     99 H           3.6584    0.2432    0.0000 H       1  UNL1        0.0587
    100 H           4.0569   -0.4470    0.0000 H       1  UNL1        0.0587
    101 H          15.1842    7.5021    0.0000 H       1  UNL1        0.2101
    102 H          13.8322    8.4844    0.0000 H       1  UNL1        0.2100
    103 H           7.4776   -3.4721    0.0000 H       1  UNL1        0.0587
    104 H           7.0791   -2.7818    0.0000 H       1  UNL1        0.0587
    105 H          13.7953    2.0156    0.0000 H       1  UNL1        0.2101
    106 H           7.7331   -4.2444    0.0000 H       1  UNL1        0.0937
    107 H          10.3312    2.0156    0.0000 H       1  UNL1        0.2100
    108 H          11.5263    1.3256    0.0000 H       1  UNL1        0.2100
    109 H           9.1360   -4.0544    0.0000 H       1  UNL1        0.0671
    110 H          10.0021   -5.1744    0.0000 H       1  UNL1        0.0648
    111 H           9.4651   -6.4844    0.0000 H       1  UNL1        0.0647
    112 H           8.0622   -6.6744    0.0000 H       1  UNL1        0.0647
    113 H          16.0791    5.8041    0.0000 H       1  UNL1        0.2096
    114 H           5.4641    5.8256    0.0000 H       1  UNL1        0.2100
    115 H           7.1962    7.4456    0.0000 H       1  UNL1        0.2100
    116 H           9.4651    6.7556    0.0000 H       1  UNL1        0.2101
    117 H           2.5369    0.5156    0.0000 H       1  UNL1        0.2100
    118 H           2.0000    2.8256    0.0000 H       1  UNL1        0.2100
    119 H           3.7320    4.4456    0.0000 H       1  UNL1        0.2101
    120 H          10.7376    8.0654    0.0000 H       1  UNL1        0.2095
    121 H           4.5981   -4.6744    0.0000 H       1  UNL1        0.2100
    122 H           3.4030   -3.9844    0.0000 H       1  UNL1        0.2100
    123 H           2.8660   -1.6744    0.0000 H       1  UNL1        0.2101
    124 H           8.8112   -7.9470    0.0000 H       1  UNL1        0.0584
    125 H           9.2097   -7.2568    0.0000 H       1  UNL1        0.0584
    126 H           9.1360   -3.0544    0.0000 H       1  UNL1        0.2101
    127 H          10.8681   -4.6744    0.0000 H       1  UNL1        0.2100
    128 H          10.3312   -6.9844    0.0000 H       1  UNL1        0.2100
    129 H           7.7331   -8.4844    0.0000 H       1  UNL1        0.2095
@<TRIPOS>BOND
     1    32     1    1
     2    35     1    1
     3     2    32    1
     4     2    36    1
     5     3    35    1
     6     3    38    1
     7     4    42    1
     8     4    44    1
     9     5    43    1
    10    44     5    1
    11    33     6    1
    12     6   101    1
    13     7    48    1
    14     7    52    1
    15    34     8    1
    16     8   102    1
    17    52     9    1
    18     9    59    1
    19    10    54    1
    20    10    58    1
    21    37    11    1
    22    11   105    1
    23    39    12    1
    24    12   107    1
    25    40    13    1
    26    13   108    1
    27    58    14    1
    28    14    60    1
    29    15    41    1
    30    15   113    1
    31    16    61    1
    32    62    16    1
    33    45    17    1
    34    17   114    1
    35    46    18    1
    36    18   116    1
    37    47    19    1
    38    19   115    1
    39    20    62    1
    40    20    66    1
    41    49    21    1
    42    21   117    1
    43    50    22    1
    44    22   118    1
    45    53    23    1
    46    23   119    1
    47    24    51    1
    48    24   120    1
    49    55    25    1
    50    25   121    1
    51    56    26    1
    52    26   122    1
    53    57    27    1
    54    27   123    1
    55    63    28    1
    56    28   126    1
    57    64    29    1
    58    29   127    1
    59    65    30    1
    60    30   128    1
    61    31    67    1
    62    31   129    1
    63    32    33    1
    64    32    41    1
    65    33    34    1
    66    33    68    1
    67    34    36    1
    68    34    69    1
    69    35    37    1
    70    35    70    1
    71    36    51    1
    72    36    71    1
    73    37    40    1
    74    37    73    1
    75    38    39    1
    76    38    43    1
    77    38    72    1
    78    39    40    1
    79    39    74    1
    80    40    75    1
    81    41    76    1
    82    41    77    1
    83    42    45    1
    84    42    59    1
    85    42    78    1
    86    43    79    1
    87    43    80    1
    88    44    46    1
    89    44    81    1
    90    45    47    1
    91    45    82    1
    92    46    47    1
    93    46    83    1
    94    47    84    1
    95    48    49    1
    96    48    60    1
    97    48    85    1
    98    49    50    1
    99    49    86    1
   100    50    53    1
   101    50    87    1
   102    51    90    1
   103    51    91    1
   104    52    53    1
   105    52    88    1
   106    53    89    1
   107    54    55    1
   108    54    61    1
   109    54    92    1
   110    55    56    1
   111    55    93    1
   112    56    57    1
   113    56    94    1
   114    57    58    1
   115    57    95    1
   116    58    96    1
   117    59    97    1
   118    59    98    1
   119    60    99    1
   120    60   100    1
   121    61   103    1
   122    61   104    1
   123    62    63    1
   124    62   106    1
   125    63    64    1
   126    63   109    1
   127    64    65    1
   128    64   110    1
   129    65    66    1
   130    65   111    1
   131    66    67    1
   132    66   112    1
   133    67   124    1
   134    67   125    1
