@<TRIPOS>MOLECULE
IMPHY006402
 104 110 0 0 0
SMALL
GASTEIGER

@<TRIPOS>ATOM
      1 O           5.7175    2.1053    0.0000 O.3     1  UNL1       -0.3592
      2 O           7.1962   -0.2257    0.0000 O.3     1  UNL1       -0.3412
      3 O           9.4016    2.8891    0.0000 O.2     1  UNL1       -0.4709
      4 O           8.0611    4.0452    0.0000 O.3     1  UNL1       -0.3095
      5 O           6.3360    4.0073    0.0000 O.3     1  UNL1       -0.3921
      6 O           5.4641   -0.2257    0.0000 O.3     1  UNL1       -0.3409
      7 O           8.4016    5.7435    0.0000 O.3     1  UNL1       -0.3404
      8 O           7.1962   -2.2257    0.0000 O.3     1  UNL1       -0.4492
      9 O           5.4641   -3.2257    0.0000 O.3     1  UNL1       -0.4505
     10 O          10.0221    3.6521    0.0000 O.3     1  UNL1       -0.3841
     11 O           3.7320   -2.2257    0.0000 O.3     1  UNL1       -0.4550
     12 O          11.3431    5.1537    0.0000 O.3     1  UNL1       -0.3864
     13 O          10.7031    7.0486    0.0000 O.3     1  UNL1       -0.3865
     14 O           7.7616    7.6383    0.0000 O.3     1  UNL1       -0.3924
     15 O           6.3301   -3.7257    0.0000 O.2     1  UNL1       -0.2456
     16 O           3.7320   -3.2257    0.0000 O.2     1  UNL1       -0.2456
     17 O           2.8660   -0.7257    0.0000 O.2     1  UNL1       -0.2512
     18 C           6.6962    2.3131    0.0000 C.3     1  UNL1        0.1304
     19 C           6.3871    1.3620    0.0000 C.3     1  UNL1        0.1178
     20 C           7.6962    2.3131    0.0000 C.3     1  UNL1        0.0641
     21 C           7.1962    0.7743    0.0000 C.3     1  UNL1        0.0975
     22 C           8.0052    1.3620    0.0000 C.3     1  UNL1        0.0204
     23 C           7.0052    3.2642    0.0000 C.3     1  UNL1        0.0763
     24 C           8.3811    3.0978    0.0000 C.3     1  UNL1        0.2096
     25 C           9.0206    1.1298    0.0000 C.2     1  UNL1       -0.0434
     26 C           9.7235    1.8985    0.0000 C.2     1  UNL1        0.0843
     27 C           6.3301   -0.7257    0.0000 C.3     1  UNL1        0.2007
     28 C           6.3301   -1.7257    0.0000 C.3     1  UNL1        0.1939
     29 C           8.7216    4.7961    0.0000 C.3     1  UNL1        0.1918
     30 C           5.4641   -2.2257    0.0000 C.3     1  UNL1        0.1838
     31 C           9.7021    4.5995    0.0000 C.3     1  UNL1        0.1342
     32 C           4.5981   -0.7257    0.0000 C.3     1  UNL1        0.0995
     33 C           4.5981   -1.7257    0.0000 C.3     1  UNL1        0.1691
     34 C          10.3626    5.3503    0.0000 C.3     1  UNL1        0.1141
     35 C           9.0621    6.4943    0.0000 C.3     1  UNL1        0.1130
     36 C          10.0426    6.2978    0.0000 C.3     1  UNL1        0.1119
     37 C           3.7320   -0.2257    0.0000 C.3     1  UNL1       -0.0350
     38 C           8.7421    7.4418    0.0000 C.3     1  UNL1        0.0730
     39 C           7.1962   -3.2257    0.0000 C.2     1  UNL1        0.3325
     40 C           4.5981   -3.7257    0.0000 C.2     1  UNL1        0.3324
     41 C           2.8660   -1.7257    0.0000 C.2     1  UNL1        0.3044
     42 C           8.0622   -3.7257    0.0000 C.2     1  UNL1        0.0231
     43 C           4.5981   -4.7257    0.0000 C.2     1  UNL1        0.0231
     44 C           2.0000   -2.2257    0.0000 C.3     1  UNL1        0.0332
     45 C           8.0622   -4.7257    0.0000 C.2     1  UNL1       -0.0478
     46 C           3.7320   -5.2257    0.0000 C.2     1  UNL1       -0.0478
     47 C           8.9282   -5.2257    0.0000 C.ar    1  UNL1       -0.0248
     48 C           3.7320   -6.2257    0.0000 C.ar    1  UNL1       -0.0248
     49 C           8.9282   -6.2257    0.0000 C.ar    1  UNL1       -0.0546
     50 C           9.7942   -4.7257    0.0000 C.ar    1  UNL1       -0.0546
     51 C           2.8660   -6.7257    0.0000 C.ar    1  UNL1       -0.0546
     52 C           4.5981   -6.7257    0.0000 C.ar    1  UNL1       -0.0546
     53 C           9.7942   -6.7257    0.0000 C.ar    1  UNL1       -0.0612
     54 C          10.6603   -5.2257    0.0000 C.ar    1  UNL1       -0.0612
     55 C          10.6603   -6.2257    0.0000 C.ar    1  UNL1       -0.0617
     56 C           2.8660   -7.7257    0.0000 C.ar    1  UNL1       -0.0612
     57 C           4.5981   -7.7257    0.0000 C.ar    1  UNL1       -0.0612
     58 C           3.7320   -8.2258    0.0000 C.ar    1  UNL1       -0.0617
     59 H           5.8185    0.7303    0.0000 H       1  UNL1        0.0652
     60 H           7.3444    3.0869    0.0000 H       1  UNL1        0.0398
     61 H           7.9535    0.3884    0.0000 H       1  UNL1        0.0630
     62 H           8.1755    0.5293    0.0000 H       1  UNL1        0.0376
     63 H           7.5526    2.9731    0.0000 H       1  UNL1        0.0587
     64 H           7.3869    3.7527    0.0000 H       1  UNL1        0.0587
     65 H           7.7730    3.2186    0.0000 H       1  UNL1        0.1060
     66 H           9.2053    0.5380    0.0000 H       1  UNL1        0.0606
     67 H          10.3295    1.7672    0.0000 H       1  UNL1        0.1021
     68 H           6.3301    0.1243    0.0000 H       1  UNL1        0.0950
     69 H           5.7296    3.8784    0.0000 H       1  UNL1        0.2095
     70 H           6.3301   -2.5757    0.0000 H       1  UNL1        0.0825
     71 H           8.9936    3.9908    0.0000 H       1  UNL1        0.0939
     72 H           4.7280   -2.6507    0.0000 H       1  UNL1        0.0812
     73 H          10.5355    4.4324    0.0000 H       1  UNL1        0.0671
     74 H           4.5981    0.1243    0.0000 H       1  UNL1        0.0632
     75 H           3.8620   -1.3007    0.0000 H       1  UNL1        0.0799
     76 H          10.9240    5.9885    0.0000 H       1  UNL1        0.0648
     77 H           8.2287    6.6614    0.0000 H       1  UNL1        0.0647
     78 H           9.7706    7.1031    0.0000 H       1  UNL1        0.0647
     79 H           4.0420    0.3112    0.0000 H       1  UNL1        0.0256
     80 H           3.1951    0.0843    0.0000 H       1  UNL1        0.0256
     81 H           3.4220   -0.7627    0.0000 H       1  UNL1        0.0256
     82 H          10.6300    3.5302    0.0000 H       1  UNL1        0.2101
     83 H           9.3550    7.5351    0.0000 H       1  UNL1        0.0584
     84 H           8.7566    8.0616    0.0000 H       1  UNL1        0.0584
     85 H          11.7526    5.6193    0.0000 H       1  UNL1        0.2100
     86 H          10.5047    7.6360    0.0000 H       1  UNL1        0.2100
     87 H           8.5991   -3.4157    0.0000 H       1  UNL1        0.0689
     88 H           7.5632    8.2258    0.0000 H       1  UNL1        0.2095
     89 H           5.1350   -5.0357    0.0000 H       1  UNL1        0.0689
     90 H           1.6900   -1.6888    0.0000 H       1  UNL1        0.0342
     91 H           1.4631   -2.5357    0.0000 H       1  UNL1        0.0342
     92 H           2.3100   -2.7627    0.0000 H       1  UNL1        0.0342
     93 H           7.5252   -5.0357    0.0000 H       1  UNL1        0.0626
     94 H           3.1951   -4.9157    0.0000 H       1  UNL1        0.0626
     95 H           8.3913   -6.5357    0.0000 H       1  UNL1        0.0623
     96 H           9.7942   -4.1057    0.0000 H       1  UNL1        0.0623
     97 H           2.3291   -6.4157    0.0000 H       1  UNL1        0.0623
     98 H           5.1350   -6.4157    0.0000 H       1  UNL1        0.0623
     99 H           9.7942   -7.3457    0.0000 H       1  UNL1        0.0618
    100 H          11.1972   -4.9157    0.0000 H       1  UNL1        0.0618
    101 H          11.1972   -6.5357    0.0000 H       1  UNL1        0.0618
    102 H           2.3291   -8.0357    0.0000 H       1  UNL1        0.0618
    103 H           5.1350   -8.0357    0.0000 H       1  UNL1        0.0618
    104 H           3.7320   -8.8458    0.0000 H       1  UNL1        0.0618
@<TRIPOS>BOND
     1     1    18    1
     2     1    19    1
     3     2    21    1
     4     2    27    1
     5     3    24    1
     6     3    26    1
     7    24     4    1
     8     4    29    1
     9     5    23    1
    10     5    69    1
    11     6    27    1
    12     6    32    1
    13     7    29    1
    14     7    35    1
    15     8    28    1
    16     8    39    1
    17     9    30    1
    18     9    40    1
    19    10    31    1
    20    10    82    1
    21    11    33    1
    22    11    41    1
    23    12    34    1
    24    12    85    1
    25    13    36    1
    26    13    86    1
    27    14    38    1
    28    14    88    1
    29    15    39    2
    30    16    40    2
    31    17    41    2
    32    18    19    1
    33    18    20    1
    34    18    23    1
    35    19    21    1
    36    19    59    1
    37    20    22    1
    38    20    24    1
    39    20    60    1
    40    21    22    1
    41    21    61    1
    42    22    25    1
    43    22    62    1
    44    23    63    1
    45    23    64    1
    46    24    65    1
    47    25    26    2
    48    25    66    1
    49    26    67    1
    50    27    28    1
    51    27    68    1
    52    28    30    1
    53    28    70    1
    54    29    31    1
    55    29    71    1
    56    30    33    1
    57    30    72    1
    58    31    34    1
    59    31    73    1
    60    32    33    1
    61    32    37    1
    62    32    74    1
    63    33    75    1
    64    34    36    1
    65    34    76    1
    66    35    36    1
    67    35    38    1
    68    35    77    1
    69    36    78    1
    70    37    79    1
    71    37    80    1
    72    37    81    1
    73    38    83    1
    74    38    84    1
    75    39    42    1
    76    40    43    1
    77    41    44    1
    78    42    45    2
    79    42    87    1
    80    43    46    2
    81    43    89    1
    82    44    90    1
    83    44    91    1
    84    44    92    1
    85    45    47    1
    86    45    93    1
    87    46    48    1
    88    46    94    1
    89    47    49   ar
    90    47    50   ar
    91    48    51   ar
    92    48    52   ar
    93    49    53   ar
    94    49    95    1
    95    50    54   ar
    96    50    96    1
    97    51    56   ar
    98    51    97    1
    99    52    57   ar
   100    52    98    1
   101    53    55   ar
   102    53    99    1
   103    54    55   ar
   104    54   100    1
   105    55   101    1
   106    56    58   ar
   107    56   102    1
   108    57    58   ar
   109    57   103    1
   110    58   104    1
