@<TRIPOS>MOLECULE
IMPHY005557
 57 59 0 0 0
SMALL
GASTEIGER

@<TRIPOS>ATOM
      1 O           6.0793    3.9640    0.0000 O.3     1  UNL1       -0.3457
      2 O           3.4812    5.4640    0.0000 O.3     1  UNL1       -0.3864
      3 O           3.4812    3.4640    0.0000 O.3     1  UNL1       -0.3847
      4 O           5.2132    6.4640    0.0000 O.3     1  UNL1       -0.3865
      5 O           7.8113    4.9640    0.0000 O.3     1  UNL1       -0.3924
      6 O           5.3457   -2.6244    0.0000 O.2     1  UNL1       -0.2706
      7 N           5.2132    2.4640    0.0000 N.ar    1  UNL1       -0.3080
      8 N           5.7132    0.9252    0.0000 N.ar    1  UNL1       -0.2406
      9 N           3.9444   -1.6064    0.0000 N.am    1  UNL1       -0.3007
     10 C           4.3472    4.9640    0.0000 C.3     1  UNL1        0.1135
     11 C           4.3472    3.9640    0.0000 C.3     1  UNL1        0.1285
     12 C           5.2132    5.4640    0.0000 C.3     1  UNL1        0.1119
     13 C           5.2132    3.4640    0.0000 C.3     1  UNL1        0.1650
     14 C           6.0793    4.9640    0.0000 C.3     1  UNL1        0.1125
     15 C           6.9453    5.4640    0.0000 C.3     1  UNL1        0.0730
     16 C           4.4042    1.8763    0.0000 C.ar    1  UNL1        0.0298
     17 C           6.0223    1.8763    0.0000 C.ar    1  UNL1        0.0983
     18 C           4.7132    0.9252    0.0000 C.ar    1  UNL1        0.0606
     19 C           4.1254    0.1162    0.0000 C.3     1  UNL1        0.0069
     20 C           4.5322   -0.7974    0.0000 C.3     1  UNL1        0.0201
     21 C           2.9499   -1.5018    0.0000 C.3     1  UNL1        0.0034
     22 C           4.3511   -2.5199    0.0000 C.2     1  UNL1        0.2392
     23 C           3.7634   -3.3289    0.0000 C.2     1  UNL1        0.0009
     24 C           4.1701   -4.2425    0.0000 C.2     1  UNL1       -0.0497
     25 C           3.5823   -5.0515    0.0000 C.ar    1  UNL1       -0.0249
     26 C           2.5878   -4.9470    0.0000 C.ar    1  UNL1       -0.0546
     27 C           3.9890   -5.9650    0.0000 C.ar    1  UNL1       -0.0546
     28 C           2.0000   -5.7560    0.0000 C.ar    1  UNL1       -0.0612
     29 C           3.4013   -6.7740    0.0000 C.ar    1  UNL1       -0.0612
     30 C           2.4067   -6.6695    0.0000 C.ar    1  UNL1       -0.0617
     31 H           4.3472    5.5841    0.0000 H       1  UNL1        0.0647
     32 H           4.3472    3.3440    0.0000 H       1  UNL1        0.0665
     33 H           5.7502    5.7740    0.0000 H       1  UNL1        0.0647
     34 H           5.7502    3.1540    0.0000 H       1  UNL1        0.0866
     35 H           6.6162    4.6540    0.0000 H       1  UNL1        0.0647
     36 H           7.3438    5.9390    0.0000 H       1  UNL1        0.0584
     37 H           6.5468    5.9390    0.0000 H       1  UNL1        0.0584
     38 H           3.8146    2.0679    0.0000 H       1  UNL1        0.0828
     39 H           3.4812    6.0841    0.0000 H       1  UNL1        0.2100
     40 H           2.9442    3.7740    0.0000 H       1  UNL1        0.2101
     41 H           5.7502    6.7740    0.0000 H       1  UNL1        0.2100
     42 H           6.6119    2.0679    0.0000 H       1  UNL1        0.1029
     43 H           3.6948    0.5622    0.0000 H       1  UNL1        0.0344
     44 H           3.6114   -0.2305    0.0000 H       1  UNL1        0.0344
     45 H           8.3482    5.2740    0.0000 H       1  UNL1        0.2095
     46 H           4.9629   -1.2433    0.0000 H       1  UNL1        0.0468
     47 H           5.0462   -0.4506    0.0000 H       1  UNL1        0.0468
     48 H           3.0147   -0.8852    0.0000 H       1  UNL1        0.0429
     49 H           2.3333   -1.4370    0.0000 H       1  UNL1        0.0429
     50 H           2.8851   -2.1184    0.0000 H       1  UNL1        0.0429
     51 H           3.1468   -3.2641    0.0000 H       1  UNL1        0.0670
     52 H           4.7867   -4.3073    0.0000 H       1  UNL1        0.0625
     53 H           2.3356   -4.3806    0.0000 H       1  UNL1        0.0623
     54 H           4.6056   -6.0298    0.0000 H       1  UNL1        0.0623
     55 H           1.3834   -5.6912    0.0000 H       1  UNL1        0.0618
     56 H           3.6534   -7.3404    0.0000 H       1  UNL1        0.0618
     57 H           2.0423   -7.1711    0.0000 H       1  UNL1        0.0618
@<TRIPOS>BOND
     1     1    13    1
     2     1    14    1
     3    10     2    1
     4     2    39    1
     5    11     3    1
     6     3    40    1
     7    12     4    1
     8     4    41    1
     9     5    15    1
    10     5    45    1
    11     6    22    2
    12    13     7    1
    13     7    16   ar
    14     7    17   ar
    15     8    17   ar
    16     8    18   ar
    17     9    20    1
    18     9    21    1
    19     9    22   am
    20    10    11    1
    21    10    12    1
    22    10    31    1
    23    11    13    1
    24    11    32    1
    25    12    14    1
    26    12    33    1
    27    13    34    1
    28    14    15    1
    29    14    35    1
    30    15    36    1
    31    15    37    1
    32    16    18   ar
    33    16    38    1
    34    17    42    1
    35    18    19    1
    36    19    20    1
    37    19    43    1
    38    19    44    1
    39    20    46    1
    40    20    47    1
    41    21    48    1
    42    21    49    1
    43    21    50    1
    44    22    23    1
    45    23    24    2
    46    23    51    1
    47    24    25    1
    48    24    52    1
    49    25    26   ar
    50    25    27   ar
    51    26    28   ar
    52    26    53    1
    53    27    29   ar
    54    27    54    1
    55    28    30   ar
    56    28    55    1
    57    29    30   ar
    58    29    56    1
    59    30    57    1
