@<TRIPOS>MOLECULE
IMPHY000755
 55 58 0 0 0
SMALL
GASTEIGER

@<TRIPOS>ATOM
      1 O           9.9085    1.3006    0.0000 O.3     1  UNL1       -0.4811
      2 O           6.3725    1.3284    0.0000 O.2     1  UNL1       -0.4613
      3 O           8.1325   -1.7063    0.0000 O.3     1  UNL1       -0.5055
      4 O           6.3841   -1.7409    0.0000 O.2     1  UNL1       -0.2863
      5 O           2.0024   -0.2404    0.0000 O.3     1  UNL1       -0.5033
      6 O           2.0101   -2.2404    0.0000 O.3     1  UNL1       -0.5033
      7 C           9.9166    2.3422    0.0000 C.3     1  UNL1        0.1235
      8 C           8.9985    0.7937    0.0000 C.ar    1  UNL1        0.1393
      9 C           8.1325    1.2937    0.0000 C.ar    1  UNL1        0.0599
     10 C           8.9985   -0.2063    0.0000 C.ar    1  UNL1        0.0409
     11 C           7.2665    0.7937    0.0000 C.ar    1  UNL1        0.1526
     12 C           9.0145    2.8630    0.0000 C.2     1  UNL1       -0.0408
     13 C           7.2665   -0.2063    0.0000 C.ar    1  UNL1        0.1069
     14 C           8.1164    2.3352    0.0000 C.2     1  UNL1       -0.0478
     15 C           8.1325   -0.7063    0.0000 C.ar    1  UNL1        0.1382
     16 C          10.4199    3.2063    0.0000 C.3     1  UNL1       -0.0215
     17 C          10.9165    2.3383    0.0000 C.3     1  UNL1       -0.0215
     18 C           9.8646   -0.7063    0.0000 C.3     1  UNL1       -0.0023
     19 C           6.3725   -0.7409    0.0000 C.ar    1  UNL1        0.2037
     20 C           5.4665   -0.2271    0.0000 C.ar    1  UNL1        0.0645
     21 C           9.8646   -1.7063    0.0000 C.2     1  UNL1       -0.0807
     22 C           5.4665    0.8145    0.0000 C.ar    1  UNL1        0.1039
     23 C           4.6024   -0.7304    0.0000 C.ar    1  UNL1       -0.0076
     24 C          10.7306   -2.2063    0.0000 C.2     1  UNL1       -0.0793
     25 C           3.7344   -0.2338    0.0000 C.ar    1  UNL1       -0.0086
     26 C           4.6062   -1.7304    0.0000 C.ar    1  UNL1       -0.0501
     27 C          10.7306   -3.2063    0.0000 C.3     1  UNL1       -0.0440
     28 C          11.5966   -1.7063    0.0000 C.3     1  UNL1       -0.0440
     29 C           2.8703   -0.7371    0.0000 C.ar    1  UNL1        0.1588
     30 C           3.7421   -2.2338    0.0000 C.ar    1  UNL1       -0.0160
     31 C           2.8742   -1.7371    0.0000 C.ar    1  UNL1        0.1582
     32 H           9.0121    3.4830    0.0000 H       1  UNL1        0.0611
     33 H           7.5760    2.6390    0.0000 H       1  UNL1        0.0624
     34 H          10.9556    2.8942    0.0000 H       1  UNL1        0.0271
     35 H          10.7320    3.7420    0.0000 H       1  UNL1        0.0271
     36 H           9.8842    3.5183    0.0000 H       1  UNL1        0.0271
     37 H          10.9142    1.7183    0.0000 H       1  UNL1        0.0271
     38 H          11.5365    2.3359    0.0000 H       1  UNL1        0.0271
     39 H          10.9189    2.9583    0.0000 H       1  UNL1        0.0271
     40 H          10.4751   -0.8139    0.0000 H       1  UNL1        0.0358
     41 H          10.0766   -0.1237    0.0000 H       1  UNL1        0.0358
     42 H           9.3276   -2.0163    0.0000 H       1  UNL1        0.0575
     43 H           4.9307    1.1266    0.0000 H       1  UNL1        0.1037
     44 H           8.6694   -2.0163    0.0000 H       1  UNL1        0.2922
     45 H           3.7320    0.3862    0.0000 H       1  UNL1        0.0661
     46 H           5.1444   -2.0383    0.0000 H       1  UNL1        0.0625
     47 H          10.1106   -3.2063    0.0000 H       1  UNL1        0.0274
     48 H          11.9066   -2.2432    0.0000 H       1  UNL1        0.0274
     49 H          12.1335   -1.3963    0.0000 H       1  UNL1        0.0274
     50 H          11.2866   -1.1693    0.0000 H       1  UNL1        0.0274
     51 H          10.7306   -3.8263    0.0000 H       1  UNL1        0.0274
     52 H          11.3506   -3.2063    0.0000 H       1  UNL1        0.0274
     53 H           3.7445   -2.8537    0.0000 H       1  UNL1        0.0655
     54 H           2.0000    0.3796    0.0000 H       1  UNL1        0.2923
     55 H           2.0125   -2.8604    0.0000 H       1  UNL1        0.2923
@<TRIPOS>BOND
     1     1     7    1
     2     1     8    1
     3     2    11   ar
     4     2    22   ar
     5     3    15    1
     6     3    44    1
     7     4    19    2
     8     5    29    1
     9     5    54    1
    10     6    31    1
    11     6    55    1
    12     7    12    1
    13     7    16    1
    14     7    17    1
    15     8     9   ar
    16     8    10   ar
    17     9    11   ar
    18     9    14    1
    19    10    15   ar
    20    10    18    1
    21    11    13   ar
    22    12    14    2
    23    12    32    1
    24    13    15   ar
    25    13    19   ar
    26    14    33    1
    27    16    34    1
    28    16    35    1
    29    16    36    1
    30    17    37    1
    31    17    38    1
    32    17    39    1
    33    18    21    1
    34    18    40    1
    35    18    41    1
    36    19    20   ar
    37    20    22   ar
    38    20    23    1
    39    21    24    2
    40    21    42    1
    41    22    43    1
    42    23    25   ar
    43    23    26   ar
    44    24    27    1
    45    24    28    1
    46    25    29   ar
    47    25    45    1
    48    26    30   ar
    49    26    46    1
    50    27    47    1
    51    27    51    1
    52    27    52    1
    53    28    48    1
    54    28    49    1
    55    28    50    1
    56    29    31   ar
    57    30    31   ar
    58    30    53    1
