@<TRIPOS>MOLECULE
IMPHY013428
 51 54 0 0 0
SMALL
GASTEIGER

@<TRIPOS>ATOM
      1 O           5.1350   -0.5000    0.0000 O.3     1  UNL1       -0.3221
      2 O           6.8671   -0.5000    0.0000 O.3     1  UNL1       -0.4534
      3 O           5.1350   -3.5000    0.0000 O.3     1  UNL1       -0.3863
      4 O           6.8671   -2.5000    0.0000 O.3     1  UNL1       -0.3829
      5 O           3.4030   -2.5000    0.0000 O.3     1  UNL1       -0.3860
      6 O           2.5369   -1.0000    0.0000 O.3     1  UNL1       -0.4788
      7 O           8.6270    0.4653    0.0000 O.2     1  UNL1       -0.4507
      8 O           3.4030    0.5000    0.0000 O.2     1  UNL1       -0.2480
      9 O           5.1350    0.5000    0.0000 O.3     1  UNL1       -0.5031
     10 O           6.8671    3.5000    0.0000 O.3     1  UNL1       -0.5058
     11 O           8.6155    3.5346    0.0000 O.2     1  UNL1       -0.2869
     12 O          12.9895   -1.0341    0.0000 O.3     1  UNL1       -0.5068
     13 C           5.1350   -2.5000    0.0000 C.3     1  UNL1        0.1157
     14 C           6.0010   -2.0000    0.0000 C.3     1  UNL1        0.1455
     15 C           4.2690   -2.0000    0.0000 C.3     1  UNL1        0.1202
     16 C           6.0010   -1.0000    0.0000 C.3     1  UNL1        0.2316
     17 C           4.2690   -1.0000    0.0000 C.3     1  UNL1        0.1869
     18 C           3.4030   -0.5000    0.0000 C.2     1  UNL1        0.3367
     19 C           6.8671    0.5000    0.0000 C.ar    1  UNL1        0.2080
     20 C           7.7331    1.0000    0.0000 C.ar    1  UNL1        0.1879
     21 C           6.0010    1.0000    0.0000 C.ar    1  UNL1        0.1658
     22 C           7.7331    2.0000    0.0000 C.ar    1  UNL1        0.1091
     23 C           6.8671    2.5000    0.0000 C.ar    1  UNL1        0.1349
     24 C           6.0010    2.0000    0.0000 C.ar    1  UNL1        0.0259
     25 C           8.6270    2.5347    0.0000 C.ar    1  UNL1        0.1967
     26 C           9.5331    0.9792    0.0000 C.ar    1  UNL1        0.1394
     27 C           9.5331    2.0208    0.0000 C.ar    1  UNL1        0.0288
     28 C          10.3972    0.4758    0.0000 C.ar    1  UNL1        0.0176
     29 C          11.2651    0.9725    0.0000 C.ar    1  UNL1       -0.0476
     30 C          10.3933   -0.5241    0.0000 C.ar    1  UNL1       -0.0476
     31 C          12.1292    0.4692    0.0000 C.ar    1  UNL1       -0.0195
     32 C          11.2574   -1.0275    0.0000 C.ar    1  UNL1       -0.0195
     33 C          12.1254   -0.5308    0.0000 C.ar    1  UNL1        0.1169
     34 H           4.5981   -2.8100    0.0000 H       1  UNL1        0.0648
     35 H           6.0010   -2.6200    0.0000 H       1  UNL1        0.0683
     36 H           3.7320   -1.6900    0.0000 H       1  UNL1        0.0652
     37 H           6.0010   -0.3800    0.0000 H       1  UNL1        0.1084
     38 H           4.2690   -0.3800    0.0000 H       1  UNL1        0.0742
     39 H           5.6720   -3.8100    0.0000 H       1  UNL1        0.2100
     40 H           7.4040   -2.1900    0.0000 H       1  UNL1        0.2102
     41 H           3.4030   -3.1200    0.0000 H       1  UNL1        0.2100
     42 H           5.4641    2.3100    0.0000 H       1  UNL1        0.0692
     43 H           2.0000   -0.6900    0.0000 H       1  UNL1        0.2951
     44 H          10.0688    2.3329    0.0000 H       1  UNL1        0.0693
     45 H           4.5981    0.8100    0.0000 H       1  UNL1        0.2923
     46 H           6.3301    3.8100    0.0000 H       1  UNL1        0.2922
     47 H          11.2675    1.5925    0.0000 H       1  UNL1        0.0626
     48 H           9.8552   -0.8321    0.0000 H       1  UNL1        0.0626
     49 H          12.6674    0.7771    0.0000 H       1  UNL1        0.0654
     50 H          11.2550   -1.6475    0.0000 H       1  UNL1        0.0654
     51 H          13.5276   -0.7262    0.0000 H       1  UNL1        0.2921
@<TRIPOS>BOND
     1     1    16    1
     2     1    17    1
     3    16     2    1
     4     2    19    1
     5    13     3    1
     6     3    39    1
     7     4    14    1
     8     4    40    1
     9    15     5    1
    10     5    41    1
    11     6    18    1
    12     6    43    1
    13     7    20   ar
    14     7    26   ar
    15     8    18    2
    16     9    21    1
    17     9    45    1
    18    10    23    1
    19    10    46    1
    20    11    25    2
    21    12    33    1
    22    12    51    1
    23    13    14    1
    24    13    15    1
    25    13    34    1
    26    14    16    1
    27    14    35    1
    28    15    17    1
    29    15    36    1
    30    16    37    1
    31    17    18    1
    32    17    38    1
    33    19    20   ar
    34    19    21   ar
    35    20    22   ar
    36    21    24   ar
    37    22    23   ar
    38    22    25   ar
    39    23    24   ar
    40    24    42    1
    41    25    27   ar
    42    26    27   ar
    43    26    28    1
    44    27    44    1
    45    28    29   ar
    46    28    30   ar
    47    29    31   ar
    48    29    47    1
    49    30    32   ar
    50    30    48    1
    51    31    33   ar
    52    31    49    1
    53    32    33   ar
    54    32    50    1
