@<TRIPOS>MOLECULE
IMPHY008656
 38 38 0 0 0
SMALL
GASTEIGER

@<TRIPOS>ATOM
      1 O           7.7331   -3.5950    0.0000 O.3     1  UNL1       -0.3914
      2 O           7.7331   -0.5950    0.0000 O.2     1  UNL1       -0.2973
      3 O           4.2690    3.4050    0.0000 O.3     1  UNL1       -0.4915
      4 O           2.5369    2.4050    0.0000 O.3     1  UNL1       -0.5033
      5 C           7.7331   -2.5950    0.0000 C.3     1  UNL1        0.0616
      6 C           6.8671   -2.0950    0.0000 C.3     1  UNL1        0.0319
      7 C           6.0010   -0.5950    0.0000 C.3     1  UNL1        0.0099
      8 C           6.0010    0.4050    0.0000 C.3     1  UNL1       -0.0209
      9 C           6.8671   -1.0950    0.0000 C.2     1  UNL1        0.1361
     10 C           8.5991   -2.0950    0.0000 C.3     1  UNL1       -0.0293
     11 C           5.1350    0.9050    0.0000 C.ar    1  UNL1       -0.0433
     12 C           9.4651   -2.5950    0.0000 C.3     1  UNL1       -0.0629
     13 C           5.1350    1.9050    0.0000 C.ar    1  UNL1       -0.0131
     14 C           4.2690    0.4050    0.0000 C.ar    1  UNL1       -0.0549
     15 C           4.2690    2.4050    0.0000 C.ar    1  UNL1        0.1615
     16 C           3.4030    0.9050    0.0000 C.ar    1  UNL1       -0.0163
     17 C           3.4030    1.9050    0.0000 C.ar    1  UNL1        0.1585
     18 C           5.1350    3.9050    0.0000 C.3     1  UNL1        0.0790
     19 H           8.2700   -2.9050    0.0000 H       1  UNL1        0.0597
     20 H           6.2565   -1.9873    0.0000 H       1  UNL1        0.0367
     21 H           6.6550   -2.6776    0.0000 H       1  UNL1        0.0367
     22 H           5.3905   -0.4873    0.0000 H       1  UNL1        0.0345
     23 H           5.7890   -1.1776    0.0000 H       1  UNL1        0.0345
     24 H           6.6116    0.2973    0.0000 H       1  UNL1        0.0317
     25 H           6.2131    0.9876    0.0000 H       1  UNL1        0.0317
     26 H           8.9976   -1.6200    0.0000 H       1  UNL1        0.0287
     27 H           8.2006   -1.6200    0.0000 H       1  UNL1        0.0287
     28 H           9.1551   -3.1319    0.0000 H       1  UNL1        0.0231
     29 H          10.0021   -2.9050    0.0000 H       1  UNL1        0.0231
     30 H           9.7751   -2.0581    0.0000 H       1  UNL1        0.0231
     31 H           5.6720    2.2150    0.0000 H       1  UNL1        0.0658
     32 H           4.2690   -0.2150    0.0000 H       1  UNL1        0.0621
     33 H           8.2700   -3.9050    0.0000 H       1  UNL1        0.2098
     34 H           2.8660    0.5950    0.0000 H       1  UNL1        0.0655
     35 H           2.0000    2.0950    0.0000 H       1  UNL1        0.2923
     36 H           5.4450    3.3681    0.0000 H       1  UNL1        0.0660
     37 H           5.6720    4.2150    0.0000 H       1  UNL1        0.0660
     38 H           4.8250    4.4419    0.0000 H       1  UNL1        0.0660
@<TRIPOS>BOND
     1     5     1    1
     2     1    33    1
     3     2     9    2
     4     3    15    1
     5     3    18    1
     6     4    17    1
     7     4    35    1
     8     5     6    1
     9     5    10    1
    10     5    19    1
    11     6     9    1
    12     6    20    1
    13     6    21    1
    14     7     8    1
    15     7     9    1
    16     7    22    1
    17     7    23    1
    18     8    11    1
    19     8    24    1
    20     8    25    1
    21    10    12    1
    22    10    26    1
    23    10    27    1
    24    11    13   ar
    25    11    14   ar
    26    12    28    1
    27    12    29    1
    28    12    30    1
    29    13    15   ar
    30    13    31    1
    31    14    16   ar
    32    14    32    1
    33    15    17   ar
    34    16    17   ar
    35    16    34    1
    36    18    36    1
    37    18    37    1
    38    18    38    1
