@<TRIPOS>MOLECULE
IMPHY003177
 55 57 0 0 0
SMALL
GASTEIGER

@<TRIPOS>ATOM
      1 O           3.9057   -0.7777    0.0000 O.3     1  UNL1       -0.3877
      2 O           3.7320    3.2071    0.0000 O.3     1  UNL1       -0.3915
      3 O           6.9819    3.1250    0.0000 O.3     1  UNL1       -0.4802
      4 O           5.4720    3.9737    0.0000 O.2     1  UNL1       -0.2504
      5 O           2.8956   -3.9737    0.0000 O.2     1  UNL1       -0.4708
      6 C           4.5981    0.7071    0.0000 C.3     1  UNL1        0.0032
      7 C           4.5981    1.7071    0.0000 C.3     1  UNL1        0.0085
      8 C           3.7320    0.2071    0.0000 C.3     1  UNL1        0.0747
      9 C           5.4920    2.2417    0.0000 C.3     1  UNL1        0.0705
     10 C           2.8660    0.7071    0.0000 C.3     1  UNL1       -0.0121
     11 C           3.7320    2.2071    0.0000 C.3     1  UNL1        0.0600
     12 C           5.4920    0.1724    0.0000 C.3     1  UNL1       -0.0446
     13 C           2.8660    1.7071    0.0000 C.3     1  UNL1       -0.0213
     14 C           6.3981    1.7279    0.0000 C.3     1  UNL1       -0.0371
     15 C           6.3981    0.6863    0.0000 C.3     1  UNL1       -0.0515
     16 C           4.9402   -0.2326    0.0000 C.3     1  UNL1       -0.0566
     17 C           3.2320   -0.6589    0.0000 C.3     1  UNL1       -0.0191
     18 C           4.9820    3.1019    0.0000 C.3     1  UNL1       -0.0491
     19 C           2.0000    0.2071    0.0000 C.3     1  UNL1       -0.0597
     20 C           5.9820    3.1135    0.0000 C.2     1  UNL1        0.3110
     21 C           3.7320   -1.5250    0.0000 C.3     1  UNL1       -0.0221
     22 C           3.2320   -2.3910    0.0000 C.ar    1  UNL1       -0.0096
     23 C           2.2375   -2.4955    0.0000 C.ar    1  UNL1       -0.0208
     24 C           3.6388   -3.3045    0.0000 C.ar    1  UNL1        0.0948
     25 C           2.0296   -3.4737    0.0000 C.ar    1  UNL1        0.0919
     26 H           4.5915    2.5570    0.0000 H       1  UNL1        0.0342
     27 H           2.8660    0.0871    0.0000 H       1  UNL1        0.0327
     28 H           3.1951    2.5171    0.0000 H       1  UNL1        0.0596
     29 H           5.0874   -0.2974    0.0000 H       1  UNL1        0.0272
     30 H           5.8856   -0.3066    0.0000 H       1  UNL1        0.0272
     31 H           2.6540    2.2897    0.0000 H       1  UNL1        0.0294
     32 H           2.2554    1.5994    0.0000 H       1  UNL1        0.0294
     33 H           7.0089    1.6218    0.0000 H       1  UNL1        0.0276
     34 H           6.6071    2.3116    0.0000 H       1  UNL1        0.0276
     35 H           6.6071    0.1026    0.0000 H       1  UNL1        0.0266
     36 H           7.0089    0.7924    0.0000 H       1  UNL1        0.0266
     37 H           4.3576   -0.4447    0.0000 H       1  UNL1        0.0236
     38 H           5.1523   -0.8152    0.0000 H       1  UNL1        0.0236
     39 H           5.5228   -0.0205    0.0000 H       1  UNL1        0.0236
     40 H           2.7571   -0.2604    0.0000 H       1  UNL1        0.0296
     41 H           2.7571   -1.0575    0.0000 H       1  UNL1        0.0296
     42 H           5.5154    3.4181    0.0000 H       1  UNL1        0.0240
     43 H           4.6658    3.6352    0.0000 H       1  UNL1        0.0240
     44 H           4.4487    2.7857    0.0000 H       1  UNL1        0.0240
     45 H           1.6900    0.7440    0.0000 H       1  UNL1        0.0233
     46 H           1.4631   -0.1029    0.0000 H       1  UNL1        0.0233
     47 H           2.3100   -0.3299    0.0000 H       1  UNL1        0.0233
     48 H           4.4883   -0.9898    0.0000 H       1  UNL1        0.2102
     49 H           4.2070   -1.9235    0.0000 H       1  UNL1        0.0315
     50 H           4.2070   -1.1264    0.0000 H       1  UNL1        0.0315
     51 H           3.1951    3.5171    0.0000 H       1  UNL1        0.2098
     52 H           7.2857    3.6655    0.0000 H       1  UNL1        0.2951
     53 H           1.8227   -2.0348    0.0000 H       1  UNL1        0.0652
     54 H           4.2452   -3.4334    0.0000 H       1  UNL1        0.1032
     55 H           1.4632   -3.7258    0.0000 H       1  UNL1        0.1029
@<TRIPOS>BOND
     1     8     1    1
     2     1    48    1
     3    11     2    1
     4     2    51    1
     5     3    20    1
     6     3    52    1
     7     4    20    2
     8     5    24   ar
     9     5    25   ar
    10     6     7    1
    11     6     8    1
    12     6    12    1
    13     6    16    1
    14     7     9    1
    15     7    11    1
    16     7    26    1
    17     8    10    1
    18     8    17    1
    19     9    14    1
    20     9    18    1
    21     9    20    1
    22    10    13    1
    23    10    19    1
    24    10    27    1
    25    11    13    1
    26    11    28    1
    27    12    15    1
    28    12    29    1
    29    12    30    1
    30    13    31    1
    31    13    32    1
    32    14    15    1
    33    14    33    1
    34    14    34    1
    35    15    35    1
    36    15    36    1
    37    16    37    1
    38    16    38    1
    39    16    39    1
    40    17    21    1
    41    17    40    1
    42    17    41    1
    43    18    42    1
    44    18    43    1
    45    18    44    1
    46    19    45    1
    47    19    46    1
    48    19    47    1
    49    21    22    1
    50    21    49    1
    51    21    50    1
    52    22    23   ar
    53    22    24   ar
    54    23    25   ar
    55    23    53    1
    56    24    54    1
    57    25    55    1
