@<TRIPOS>MOLECULE
IMPHY017503
 17 21 0 0 0
SMALL
GASTEIGER

@<TRIPOS>ATOM
      1 O           2.5989   -1.0536    0.0000 O.3     1  UNL1       -0.3877
      2 C           3.3060   -0.3464    0.0000 C.3     1  UNL1        0.0761
      3 C           3.3060    0.6536    0.0000 C.3     1  UNL1       -0.0047
      4 C           3.7060    0.0536    0.0000 C.3     1  UNL1       -0.0047
      5 C           4.3060   -0.3464    0.0000 C.3     1  UNL1       -0.0047
      6 C           3.7060    1.0536    0.0000 C.3     1  UNL1       -0.0262
      7 C           4.3060    0.6536    0.0000 C.3     1  UNL1       -0.0262
      8 C           4.7060    0.0536    0.0000 C.3     1  UNL1       -0.0262
      9 C           4.7060    1.0536    0.0000 C.3     1  UNL1       -0.0304
     10 H           2.7332    0.8908    0.0000 H       1  UNL1        0.0334
     11 H           3.1332    0.2908    0.0000 H       1  UNL1        0.0334
     12 H           4.5432   -0.9192    0.0000 H       1  UNL1        0.0334
     13 H           3.4687    1.6264    0.0000 H       1  UNL1        0.0311
     14 H           4.8788    0.4163    0.0000 H       1  UNL1        0.0311
     15 H           5.2788   -0.1837    0.0000 H       1  UNL1        0.0311
     16 H           5.1444    1.4920    0.0000 H       1  UNL1        0.0309
     17 H           2.0000   -0.8931    0.0000 H       1  UNL1        0.2102
@<TRIPOS>BOND
     1     1     2    1
     2     1    17    1
     3     2     3    1
     4     2     4    1
     5     2     5    1
     6     3     6    1
     7     3     7    1
     8     3    10    1
     9     4     6    1
    10     4     8    1
    11     4    11    1
    12     5     7    1
    13     5     8    1
    14     5    12    1
    15     6     9    1
    16     6    13    1
    17     7     9    1
    18     7    14    1
    19     8     9    1
    20     8    15    1
    21     9    16    1
