@<TRIPOS>MOLECULE
IMPHY008736
 48 52 0 0 0
SMALL
GASTEIGER

@<TRIPOS>ATOM
      1 O           3.9451    1.6435    0.0000 O.3     1  UNL1       -0.4672
      2 O           4.6914    2.5146    0.0000 O.2     1  UNL1       -0.2497
      3 O           5.8586    2.4458    0.0000 O.2     1  UNL1       -0.2998
      4 N           5.1025   -1.3891    0.0000 N.3     1  UNL1       -0.2903
      5 N           6.4864    1.0060    0.0000 N.2     1  UNL1       -0.2537
      6 C           6.9864   -0.5328    0.0000 C.3     1  UNL1        0.0613
      7 C           5.3536    0.6355    0.0000 C.3     1  UNL1        0.1436
      8 C           3.5254   -0.1943    0.0000 C.3     1  UNL1        0.0066
      9 C           5.2194   -0.3540    0.0000 C.3     1  UNL1        0.0506
     10 C           6.1774    0.0549    0.0000 C.2     1  UNL1        0.0486
     11 C           4.4178    0.2079    0.0000 C.3     1  UNL1       -0.0240
     12 C           6.8935   -1.5703    0.0000 C.3     1  UNL1       -0.0238
     13 C           5.9452   -2.0013    0.0000 C.3     1  UNL1        0.0010
     14 C           7.7954    0.0549    0.0000 C.ar    1  UNL1       -0.0088
     15 C           3.4156   -1.1670    0.0000 C.2     1  UNL1       -0.0551
     16 C           4.1959   -1.7581    0.0000 C.3     1  UNL1        0.0209
     17 C           4.9403    1.5461    0.0000 C.2     1  UNL1        0.3219
     18 C           5.9356    1.4488    0.0000 C.2     1  UNL1        0.1389
     19 C           7.4864    1.0060    0.0000 C.ar    1  UNL1        0.0680
     20 C           8.8108   -0.1773    0.0000 C.ar    1  UNL1       -0.0556
     21 C           2.4965   -1.5611    0.0000 C.2     1  UNL1       -0.0863
     22 C           8.1714    1.7907    0.0000 C.ar    1  UNL1       -0.0360
     23 C           9.5138    0.5914    0.0000 C.ar    1  UNL1       -0.0613
     24 C           2.3782   -2.5540    0.0000 C.3     1  UNL1       -0.0465
     25 C           9.1919    1.5820    0.0000 C.ar    1  UNL1       -0.0597
     26 C           3.5317    2.5540    0.0000 C.3     1  UNL1        0.0817
     27 H           2.8385    0.3064    0.0000 H       1  UNL1        0.0362
     28 H           4.8796    0.4252    0.0000 H       1  UNL1        0.0525
     29 H           4.8583    0.6443    0.0000 H       1  UNL1        0.0290
     30 H           4.0667    0.7189    0.0000 H       1  UNL1        0.0290
     31 H           7.0497   -2.1703    0.0000 H       1  UNL1        0.0290
     32 H           7.5114   -1.5191    0.0000 H       1  UNL1        0.0290
     33 H           5.5003   -2.4331    0.0000 H       1  UNL1        0.0427
     34 H           6.2946   -2.5135    0.0000 H       1  UNL1        0.0427
     35 H           3.7396   -2.1780    0.0000 H       1  UNL1        0.0473
     36 H           4.5279   -2.2817    0.0000 H       1  UNL1        0.0473
     37 H           6.5001    1.7050    0.0000 H       1  UNL1        0.1038
     38 H           8.9956   -0.7691    0.0000 H       1  UNL1        0.0621
     39 H           2.0000   -1.1897    0.0000 H       1  UNL1        0.0569
     40 H           7.9730    2.3781    0.0000 H       1  UNL1        0.0639
     41 H          10.1197    0.4601    0.0000 H       1  UNL1        0.0618
     42 H           1.7626   -2.4807    0.0000 H       1  UNL1        0.0272
     43 H           2.3048   -3.1697    0.0000 H       1  UNL1        0.0272
     44 H           2.9938   -2.6274    0.0000 H       1  UNL1        0.0272
     45 H           9.6050    2.0444    0.0000 H       1  UNL1        0.0618
     46 H           4.0963    2.8103    0.0000 H       1  UNL1        0.0661
     47 H           3.2755    3.1186    0.0000 H       1  UNL1        0.0661
     48 H           2.9672    2.2978    0.0000 H       1  UNL1        0.0661
@<TRIPOS>BOND
     1     1    17    1
     2     1    26    1
     3     2    17    2
     4     3    18    2
     5     4     9    1
     6     4    13    1
     7     4    16    1
     8     5    10    2
     9     5    19    1
    10     6     7    1
    11     6    10    1
    12     6    12    1
    13     6    14    1
    14     7     8    1
    15     7    17    1
    16     7    18    1
    17     8    11    1
    18     8    15    1
    19     8    27    1
    20     9    10    1
    21     9    11    1
    22     9    28    1
    23    11    29    1
    24    11    30    1
    25    12    13    1
    26    12    31    1
    27    12    32    1
    28    13    33    1
    29    13    34    1
    30    14    19   ar
    31    14    20   ar
    32    15    16    1
    33    15    21    2
    34    16    35    1
    35    16    36    1
    36    18    37    1
    37    19    22   ar
    38    20    23   ar
    39    20    38    1
    40    21    24    1
    41    21    39    1
    42    22    25   ar
    43    22    40    1
    44    23    25   ar
    45    23    41    1
    46    24    42    1
    47    24    43    1
    48    24    44    1
    49    25    45    1
    50    26    46    1
    51    26    47    1
    52    26    48    1
