@<TRIPOS>MOLECULE
IMPHY009575
 20 19 0 0 0
SMALL
GASTEIGER

@<TRIPOS>ATOM
      1 S           6.3301    0.4400    0.0000 S.3     1  UNL1       -0.0157
      2 S           5.4641   -0.0600    0.0000 S.O     1  UNL1        0.2717
      3 O           4.5981    0.4400    0.0000 O.2     1  UNL1       -0.4000
      4 O           5.4641   -1.0600    0.0000 O.2     1  UNL1       -0.2028
      5 C           7.1962   -0.0600    0.0000 C.3     1  UNL1        0.0271
      6 C           8.0622    0.4400    0.0000 C.2     1  UNL1       -0.0804
      7 C           2.8660    0.4400    0.0000 C.2     1  UNL1       -0.0512
      8 C           2.0000   -0.0600    0.0000 C.3     1  UNL1       -0.0436
      9 C           3.7320   -0.0600    0.0000 C.2     1  UNL1        0.1016
     10 C           8.9282   -0.0600    0.0000 C.2     1  UNL1       -0.1018
     11 H           6.7976   -0.5349    0.0000 H       1  UNL1        0.0429
     12 H           7.5947   -0.5349    0.0000 H       1  UNL1        0.0429
     13 H           8.0622    1.0600    0.0000 H       1  UNL1        0.0575
     14 H           2.8660    1.0600    0.0000 H       1  UNL1        0.0600
     15 H           1.6900    0.4769    0.0000 H       1  UNL1        0.0273
     16 H           1.4631   -0.3700    0.0000 H       1  UNL1        0.0273
     17 H           2.3100   -0.5969    0.0000 H       1  UNL1        0.0273
     18 H           3.7320   -0.6800    0.0000 H       1  UNL1        0.1036
     19 H           8.9282   -0.6800    0.0000 H       1  UNL1        0.0532
     20 H           9.4651    0.2500    0.0000 H       1  UNL1        0.0532
@<TRIPOS>BOND
     1     1     2    1
     2     1     5    1
     3     2     3    1
     4     2     4    2
     5     3     9    1
     6     5     6    1
     7     5    11    1
     8     5    12    1
     9     6    10    2
    10     6    13    1
    11     7     8    1
    12     7     9    2
    13     7    14    1
    14     8    15    1
    15     8    16    1
    16     8    17    1
    17     9    18    1
    18    10    19    1
    19    10    20    1
