@<TRIPOS>MOLECULE
IMPHY016939
 40 41 0 0 0
SMALL
GASTEIGER

@<TRIPOS>ATOM
      1 O           2.5369    1.2500    0.0000 O.3     1  UNL1       -0.3875
      2 C           4.2690   -0.7500    0.0000 C.3     1  UNL1       -0.0261
      3 C           5.1350   -0.2500    0.0000 C.3     1  UNL1        0.0019
      4 C           3.4030   -0.2500    0.0000 C.3     1  UNL1       -0.0191
      5 C           5.1350    0.7500    0.0000 C.2     1  UNL1       -0.0608
      6 C           4.2690   -1.7500    0.0000 C.3     1  UNL1       -0.0430
      7 C           3.4030    0.7500    0.0000 C.3     1  UNL1        0.0766
      8 C           4.2690    1.2500    0.0000 C.2     1  UNL1       -0.0447
      9 C           6.0290    1.2847    0.0000 C.3     1  UNL1       -0.0272
     10 C           6.0290   -0.7847    0.0000 C.2     1  UNL1       -0.0776
     11 C           6.9350    0.7708    0.0000 C.3     1  UNL1       -0.0283
     12 C           6.9350   -0.2708    0.0000 C.2     1  UNL1       -0.0757
     13 C           3.4030   -2.2500    0.0000 C.3     1  UNL1       -0.0624
     14 C           5.1350   -2.2500    0.0000 C.3     1  UNL1       -0.0624
     15 C           4.2690    2.2500    0.0000 C.3     1  UNL1       -0.0411
     16 C           7.7991   -0.7742    0.0000 C.3     1  UNL1       -0.0438
     17 H           3.7320   -1.0600    0.0000 H       1  UNL1        0.0313
     18 H           5.1285   -1.1000    0.0000 H       1  UNL1        0.0391
     19 H           2.7924   -0.1423    0.0000 H       1  UNL1        0.0296
     20 H           3.1909   -0.8326    0.0000 H       1  UNL1        0.0296
     21 H           4.2690   -2.3700    0.0000 H       1  UNL1        0.0298
     22 H           3.4030    1.3700    0.0000 H       1  UNL1        0.0640
     23 H           6.4226    1.7637    0.0000 H       1  UNL1        0.0313
     24 H           5.6244    1.7544    0.0000 H       1  UNL1        0.0313
     25 H           6.0218   -1.4046    0.0000 H       1  UNL1        0.0578
     26 H           7.5459    0.6647    0.0000 H       1  UNL1        0.0313
     27 H           7.1441    1.3545    0.0000 H       1  UNL1        0.0313
     28 H           3.0930   -1.7131    0.0000 H       1  UNL1        0.0232
     29 H           2.8660   -2.5600    0.0000 H       1  UNL1        0.0232
     30 H           3.7130   -2.7869    0.0000 H       1  UNL1        0.0232
     31 H           4.8250   -2.7869    0.0000 H       1  UNL1        0.0232
     32 H           5.6720   -2.5600    0.0000 H       1  UNL1        0.0232
     33 H           5.4450   -1.7131    0.0000 H       1  UNL1        0.0232
     34 H           4.8890    2.2500    0.0000 H       1  UNL1        0.0275
     35 H           4.2690    2.8700    0.0000 H       1  UNL1        0.0275
     36 H           3.6490    2.2500    0.0000 H       1  UNL1        0.0275
     37 H           2.0000    0.9400    0.0000 H       1  UNL1        0.2102
     38 H           7.4870   -1.3099    0.0000 H       1  UNL1        0.0274
     39 H           8.3348   -1.0862    0.0000 H       1  UNL1        0.0274
     40 H           8.1112   -0.2384    0.0000 H       1  UNL1        0.0274
@<TRIPOS>BOND
     1     7     1    1
     2     1    37    1
     3     2     3    1
     4     2     4    1
     5     2     6    1
     6     2    17    1
     7     3     5    1
     8     3    10    1
     9     3    18    1
    10     4     7    1
    11     4    19    1
    12     4    20    1
    13     5     8    2
    14     5     9    1
    15     6    13    1
    16     6    14    1
    17     6    21    1
    18     7     8    1
    19     7    22    1
    20     8    15    1
    21     9    11    1
    22     9    23    1
    23     9    24    1
    24    10    12    2
    25    10    25    1
    26    11    12    1
    27    11    26    1
    28    11    27    1
    29    12    16    1
    30    13    28    1
    31    13    29    1
    32    13    30    1
    33    14    31    1
    34    14    32    1
    35    14    33    1
    36    15    34    1
    37    15    35    1
    38    15    36    1
    39    16    38    1
    40    16    39    1
    41    16    40    1
