@<TRIPOS>MOLECULE
IMPHY007895
 41 44 0 0 0
SMALL
GASTEIGER

@<TRIPOS>ATOM
      1 O          10.4366    0.8177    0.0000 O.3     1  UNL1       -0.4814
      2 O           6.9006    0.8455    0.0000 O.2     1  UNL1       -0.4613
      3 O           8.6605   -2.1892    0.0000 O.3     1  UNL1       -0.5058
      4 O           6.9121   -2.2238    0.0000 O.2     1  UNL1       -0.2863
      5 O           2.5381   -2.7234    0.0000 O.3     1  UNL1       -0.5068
      6 C          10.4446    1.8592    0.0000 C.3     1  UNL1        0.1235
      7 C           8.6605    0.8108    0.0000 C.ar    1  UNL1        0.0597
      8 C           9.5266    0.3108    0.0000 C.ar    1  UNL1        0.1359
      9 C           9.5425    2.3801    0.0000 C.2     1  UNL1       -0.0408
     10 C           7.7945    0.3108    0.0000 C.ar    1  UNL1        0.1525
     11 C           8.6445    1.8523    0.0000 C.2     1  UNL1       -0.0478
     12 C           7.7945   -0.6892    0.0000 C.ar    1  UNL1        0.1066
     13 C          10.9479    2.7234    0.0000 C.3     1  UNL1       -0.0215
     14 C          11.4446    1.8554    0.0000 C.3     1  UNL1       -0.0215
     15 C           9.5266   -0.6892    0.0000 C.ar    1  UNL1        0.0231
     16 C           8.6605   -1.1892    0.0000 C.ar    1  UNL1        0.1347
     17 C           6.9006   -1.2239    0.0000 C.ar    1  UNL1        0.2037
     18 C           5.9945   -0.7100    0.0000 C.ar    1  UNL1        0.0644
     19 C           5.9945    0.3316    0.0000 C.ar    1  UNL1        0.1039
     20 C           5.1304   -1.2133    0.0000 C.ar    1  UNL1       -0.0110
     21 C           4.2625   -0.7167    0.0000 C.ar    1  UNL1       -0.0504
     22 C           5.1343   -2.2133    0.0000 C.ar    1  UNL1       -0.0504
     23 C           3.3984   -1.2200    0.0000 C.ar    1  UNL1       -0.0196
     24 C           4.2702   -2.7167    0.0000 C.ar    1  UNL1       -0.0196
     25 C           3.4022   -2.2200    0.0000 C.ar    1  UNL1        0.1169
     26 H           9.5401    3.0001    0.0000 H       1  UNL1        0.0611
     27 H           8.1040    2.1561    0.0000 H       1  UNL1        0.0624
     28 H          11.4837    2.4113    0.0000 H       1  UNL1        0.0271
     29 H          11.2600    3.2591    0.0000 H       1  UNL1        0.0271
     30 H          11.4422    1.2354    0.0000 H       1  UNL1        0.0271
     31 H          12.0646    1.8530    0.0000 H       1  UNL1        0.0271
     32 H          11.4470    2.4754    0.0000 H       1  UNL1        0.0271
     33 H          10.4122    3.0354    0.0000 H       1  UNL1        0.0271
     34 H          10.0635   -0.9992    0.0000 H       1  UNL1        0.0691
     35 H           5.4588    0.6437    0.0000 H       1  UNL1        0.1037
     36 H           4.2601   -0.0967    0.0000 H       1  UNL1        0.0625
     37 H           5.6724   -2.5213    0.0000 H       1  UNL1        0.0625
     38 H           9.1975   -2.4992    0.0000 H       1  UNL1        0.2922
     39 H           2.8602   -0.9121    0.0000 H       1  UNL1        0.0654
     40 H           4.2726   -3.3367    0.0000 H       1  UNL1        0.0654
     41 H           2.0000   -2.4154    0.0000 H       1  UNL1        0.2921
@<TRIPOS>BOND
     1     1     6    1
     2     1     8    1
     3     2    10   ar
     4     2    19   ar
     5     3    16    1
     6     3    38    1
     7     4    17    2
     8     5    25    1
     9     5    41    1
    10     6     9    1
    11     6    13    1
    12     6    14    1
    13     7     8   ar
    14     7    10   ar
    15     7    11    1
    16     8    15   ar
    17     9    11    2
    18     9    26    1
    19    10    12   ar
    20    11    27    1
    21    12    16   ar
    22    12    17   ar
    23    13    28    1
    24    13    29    1
    25    13    33    1
    26    14    30    1
    27    14    31    1
    28    14    32    1
    29    15    16   ar
    30    15    34    1
    31    17    18   ar
    32    18    19   ar
    33    18    20    1
    34    19    35    1
    35    20    21   ar
    36    20    22   ar
    37    21    23   ar
    38    21    36    1
    39    22    24   ar
    40    22    37    1
    41    23    25   ar
    42    23    39    1
    43    24    25   ar
    44    24    40    1
