@<TRIPOS>MOLECULE
IMPHY008389
 30 34 0 0 0
SMALL
GASTEIGER

@<TRIPOS>ATOM
      1 O           4.0768   -2.7090    0.0000 O.3     1  UNL1       -0.4524
      2 O           2.6249   -1.8708    0.0000 O.3     1  UNL1       -0.4489
      3 O           2.5405    0.3756    0.0000 O.3     1  UNL1       -0.5027
      4 O           3.4446    1.8725    0.0000 O.2     1  UNL1       -0.2665
      5 N           5.1767    1.8725    0.0000 N.ar    1  UNL1       -0.2824
      6 C           6.0427    1.3725    0.0000 C.ar    1  UNL1        0.0643
      7 C           5.1767   -0.1275    0.0000 C.ar    1  UNL1        0.0037
      8 C           6.0427    0.3725    0.0000 C.ar    1  UNL1        0.0076
      9 C           4.3107    0.3725    0.0000 C.ar    1  UNL1        0.0928
     10 C           6.9367    1.9072    0.0000 C.ar    1  UNL1        0.0009
     11 C           4.3107    1.3725    0.0000 C.ar    1  UNL1        0.2672
     12 C           5.1928   -1.1690    0.0000 C.ar    1  UNL1       -0.0074
     13 C           3.4007   -0.1344    0.0000 C.ar    1  UNL1        0.1755
     14 C           4.2947   -1.6968    0.0000 C.ar    1  UNL1        0.1705
     15 C           3.3926   -1.1760    0.0000 C.ar    1  UNL1        0.2081
     16 C           5.5418    2.7968    0.0000 C.ar    1  UNL1        0.0139
     17 C           6.9367   -0.1622    0.0000 C.ar    1  UNL1       -0.0520
     18 C           6.5354    2.8164    0.0000 C.ar    1  UNL1       -0.0360
     19 C           7.8427    1.3933    0.0000 C.ar    1  UNL1       -0.0525
     20 C           7.8427    0.3517    0.0000 C.ar    1  UNL1       -0.0605
     21 C           3.0469   -2.8164    0.0000 C.3     1  UNL1        0.2334
     22 H           5.7332   -1.4728    0.0000 H       1  UNL1        0.0662
     23 H           5.1881    3.3060    0.0000 H       1  UNL1        0.0814
     24 H           6.9295   -0.7821    0.0000 H       1  UNL1        0.0624
     25 H           6.8688    3.3391    0.0000 H       1  UNL1        0.0639
     26 H           8.3785    1.7054    0.0000 H       1  UNL1        0.0624
     27 H           8.3785    0.0396    0.0000 H       1  UNL1        0.0618
     28 H           2.4573   -3.0081    0.0000 H       1  UNL1        0.1166
     29 H           3.1756   -3.4229    0.0000 H       1  UNL1        0.1166
     30 H           2.0000    0.0719    0.0000 H       1  UNL1        0.2923
@<TRIPOS>BOND
     1     1    14    1
     2     1    21    1
     3     2    15    1
     4     2    21    1
     5     3    13    1
     6     3    30    1
     7     4    11    2
     8     5     6   ar
     9     5    11   ar
    10     5    16   ar
    11     6     8   ar
    12     6    10   ar
    13     7     8   ar
    14     7     9   ar
    15     7    12   ar
    16     8    17   ar
    17     9    11   ar
    18     9    13   ar
    19    10    18   ar
    20    10    19   ar
    21    12    14   ar
    22    12    22    1
    23    13    15   ar
    24    14    15   ar
    25    16    18   ar
    26    16    23    1
    27    17    20   ar
    28    17    24    1
    29    18    25    1
    30    19    20   ar
    31    19    26    1
    32    20    27    1
    33    21    28    1
    34    21    29    1
