@<TRIPOS>MOLECULE
IMPHY008158
 83 87 0 0 0
SMALL
GASTEIGER

@<TRIPOS>ATOM
      1 O           7.0379   -3.2628    0.0000 O.3     1  UNL1       -0.3912
      2 O          12.3899    2.9508    0.0000 O.3     1  UNL1       -0.3912
      3 O           2.5333   -0.6443    0.0000 O.3     1  UNL1       -0.3907
      4 C           8.7820   -0.1936    0.0000 C.3     1  UNL1       -0.0230
      5 C           7.9160   -0.6936    0.0000 C.3     1  UNL1       -0.0209
      6 C           8.7820    0.8064    0.0000 C.3     1  UNL1       -0.0294
      7 C           7.0500   -0.1936    0.0000 C.3     1  UNL1       -0.0311
      8 C           9.6760    1.3411    0.0000 C.3     1  UNL1       -0.0252
      9 C          10.5820    0.8272    0.0000 C.3     1  UNL1       -0.0278
     10 C           6.1400   -0.7004    0.0000 C.3     1  UNL1       -0.0233
     11 C           9.6760   -0.7283    0.0000 C.3     1  UNL1       -0.0466
     12 C           7.9160    1.3064    0.0000 C.3     1  UNL1       -0.0489
     13 C           7.9321   -1.7351    0.0000 C.3     1  UNL1       -0.0201
     14 C           7.0500    0.8064    0.0000 C.3     1  UNL1       -0.0491
     15 C           6.1319   -1.7420    0.0000 C.3     1  UNL1        0.0010
     16 C          10.5820   -0.2144    0.0000 C.3     1  UNL1       -0.0486
     17 C          11.5258    1.3625    0.0000 C.3     1  UNL1       -0.0056
     18 C           7.0340   -2.2629    0.0000 C.3     1  UNL1        0.0617
     19 C           9.6509    2.4258    0.0000 C.3     1  UNL1       -0.0447
     20 C           9.1241   -1.1333    0.0000 C.3     1  UNL1       -0.0588
     21 C           8.5588   -1.4596    0.0000 C.3     1  UNL1       -0.0587
     22 C           5.2131   -0.1364    0.0000 C.3     1  UNL1       -0.0169
     23 C           8.8061    1.8344    0.0000 C.3     1  UNL1       -0.0590
     24 C          11.5258    2.4474    0.0000 C.3     1  UNL1        0.0606
     25 C          10.5820    2.9827    0.0000 C.3     1  UNL1       -0.0258
     26 C           5.1965   -2.2918    0.0000 C.3     1  UNL1       -0.0264
     27 C           6.1242   -2.7420    0.0000 C.3     1  UNL1       -0.0566
     28 C          12.5258    1.3586    0.0000 C.3     1  UNL1       -0.0572
     29 C          12.0225    0.4945    0.0000 C.3     1  UNL1       -0.0572
     30 C           4.2652   -0.6643    0.0000 C.2     1  UNL1       -0.0453
     31 C           4.2569   -1.7493    0.0000 C.2     1  UNL1       -0.0817
     32 C           5.2324    0.8635    0.0000 C.3     1  UNL1       -0.0583
     33 C           3.4051   -0.1543    0.0000 C.3     1  UNL1        0.0656
     34 H           9.5214    0.3871    0.0000 H       1  UNL1        0.0312
     35 H           7.7861    0.2314    0.0000 H       1  UNL1        0.0309
     36 H          11.3165    0.3994    0.0000 H       1  UNL1        0.0312
     37 H           6.1564    0.1494    0.0000 H       1  UNL1        0.0315
     38 H           9.2714   -1.1980    0.0000 H       1  UNL1        0.0271
     39 H          10.0696   -1.2073    0.0000 H       1  UNL1        0.0271
     40 H           8.3145    1.7814    0.0000 H       1  UNL1        0.0268
     41 H           7.5175    1.7814    0.0000 H       1  UNL1        0.0268
     42 H           8.1501   -2.3155    0.0000 H       1  UNL1        0.0296
     43 H           8.5412   -1.6196    0.0000 H       1  UNL1        0.0296
     44 H           6.8379    1.3890    0.0000 H       1  UNL1        0.0268
     45 H           6.4394    0.6987    0.0000 H       1  UNL1        0.0268
     46 H          10.7911   -0.7981    0.0000 H       1  UNL1        0.0268
     47 H          11.1929   -0.1083    0.0000 H       1  UNL1        0.0268
     48 H           7.5727   -2.5698    0.0000 H       1  UNL1        0.0599
     49 H           9.4284    3.0045    0.0000 H       1  UNL1        0.0271
     50 H           9.0426    2.3056    0.0000 H       1  UNL1        0.0271
     51 H           8.5416   -1.3454    0.0000 H       1  UNL1        0.0235
     52 H           9.3362   -1.7158    0.0000 H       1  UNL1        0.0235
     53 H           9.7067   -0.9211    0.0000 H       1  UNL1        0.0235
     54 H           8.0838   -1.8582    0.0000 H       1  UNL1        0.0235
     55 H           8.9573   -1.9346    0.0000 H       1  UNL1        0.0235
     56 H           9.0337   -1.0611    0.0000 H       1  UNL1        0.0235
     57 H           5.7565    0.1622    0.0000 H       1  UNL1        0.0347
     58 H           9.1120    2.3737    0.0000 H       1  UNL1        0.0235
     59 H           8.2668    2.1402    0.0000 H       1  UNL1        0.0235
     60 H           8.5003    1.2951    0.0000 H       1  UNL1        0.0235
     61 H          12.0634    2.1385    0.0000 H       1  UNL1        0.0599
     62 H          10.9757    3.4617    0.0000 H       1  UNL1        0.0290
     63 H          10.1774    3.4525    0.0000 H       1  UNL1        0.0290
     64 H           4.7992   -2.7677    0.0000 H       1  UNL1        0.0314
     65 H           5.5975   -2.7647    0.0000 H       1  UNL1        0.0314
     66 H           5.5042   -2.7372    0.0000 H       1  UNL1        0.0236
     67 H           6.1194   -3.3620    0.0000 H       1  UNL1        0.0236
     68 H           6.7442   -2.7468    0.0000 H       1  UNL1        0.0236
     69 H          12.5234    0.7386    0.0000 H       1  UNL1        0.0236
     70 H          11.4844    0.1866    0.0000 H       1  UNL1        0.0236
     71 H          12.3304   -0.0436    0.0000 H       1  UNL1        0.0236
     72 H          13.1458    1.3562    0.0000 H       1  UNL1        0.0236
     73 H          12.5282    1.9786    0.0000 H       1  UNL1        0.0236
     74 H          12.5606    0.8024    0.0000 H       1  UNL1        0.0236
     75 H           3.7188   -2.0572    0.0000 H       1  UNL1        0.0573
     76 H           5.8523    0.8515    0.0000 H       1  UNL1        0.0236
     77 H           5.2444    1.4833    0.0000 H       1  UNL1        0.0236
     78 H           4.6125    0.8754    0.0000 H       1  UNL1        0.0236
     79 H           7.5760   -3.5708    0.0000 H       1  UNL1        0.2098
     80 H          12.3875    3.5708    0.0000 H       1  UNL1        0.2098
     81 H           3.8091    0.3160    0.0000 H       1  UNL1        0.0604
     82 H           3.0120    0.3252    0.0000 H       1  UNL1        0.0604
     83 H           2.0000   -0.3281    0.0000 H       1  UNL1        0.2098
@<TRIPOS>BOND
     1    18     1    1
     2     1    79    1
     3    24     2    1
     4     2    80    1
     5     3    33    1
     6     3    83    1
     7     4     5    1
     8     4     6    1
     9     4    11    1
    10     4    20    1
    11     5     7    1
    12     5    13    1
    13     5    21    1
    14     6     8    1
    15     6    12    1
    16     6    34    1
    17     7    10    1
    18     7    14    1
    19     7    35    1
    20     8     9    1
    21     8    19    1
    22     8    23    1
    23     9    16    1
    24     9    17    1
    25     9    36    1
    26    10    15    1
    27    10    22    1
    28    10    37    1
    29    11    16    1
    30    11    38    1
    31    11    39    1
    32    12    14    1
    33    12    40    1
    34    12    41    1
    35    13    18    1
    36    13    42    1
    37    13    43    1
    38    14    44    1
    39    14    45    1
    40    15    18    1
    41    15    26    1
    42    15    27    1
    43    16    46    1
    44    16    47    1
    45    17    24    1
    46    17    28    1
    47    17    29    1
    48    18    48    1
    49    19    25    1
    50    19    49    1
    51    19    50    1
    52    20    51    1
    53    20    52    1
    54    20    53    1
    55    21    54    1
    56    21    55    1
    57    21    56    1
    58    22    30    1
    59    22    32    1
    60    22    57    1
    61    23    58    1
    62    23    59    1
    63    23    60    1
    64    24    25    1
    65    24    61    1
    66    25    62    1
    67    25    63    1
    68    26    31    1
    69    26    64    1
    70    26    65    1
    71    27    66    1
    72    27    67    1
    73    27    68    1
    74    28    69    1
    75    28    72    1
    76    28    73    1
    77    29    70    1
    78    29    71    1
    79    29    74    1
    80    30    31    2
    81    30    33    1
    82    31    75    1
    83    32    76    1
    84    32    77    1
    85    32    78    1
    86    33    81    1
    87    33    82    1
