@<TRIPOS>MOLECULE
IMPHY013789
 21 21 0 0 0
SMALL
GASTEIGER

@<TRIPOS>ATOM
      1 O           4.5981    1.5600    0.0000 O.3     1  UNL1       -0.4913
      2 O           2.8660    0.5600    0.0000 O.3     1  UNL1       -0.4914
      3 O           6.3301   -1.4400    0.0000 O.3     1  UNL1       -0.5066
      4 C           4.5981    0.5600    0.0000 C.ar    1  UNL1        0.1649
      5 C           3.7320    0.0600    0.0000 C.ar    1  UNL1        0.1617
      6 C           5.4641    0.0600    0.0000 C.ar    1  UNL1        0.0252
      7 C           3.7320   -0.9400    0.0000 C.ar    1  UNL1       -0.0129
      8 C           5.4641   -0.9400    0.0000 C.ar    1  UNL1        0.1206
      9 C           4.5981   -1.4400    0.0000 C.ar    1  UNL1       -0.0165
     10 C           5.4641    2.0600    0.0000 C.3     1  UNL1        0.0790
     11 C           2.0000    0.0600    0.0000 C.3     1  UNL1        0.0790
     12 H           6.0010    0.3700    0.0000 H       1  UNL1        0.0692
     13 H           3.1951   -1.2500    0.0000 H       1  UNL1        0.0656
     14 H           4.5981   -2.0600    0.0000 H       1  UNL1        0.0655
     15 H           5.7741    1.5231    0.0000 H       1  UNL1        0.0660
     16 H           6.0010    2.3700    0.0000 H       1  UNL1        0.0660
     17 H           5.1541    2.5969    0.0000 H       1  UNL1        0.0660
     18 H           1.6900    0.5969    0.0000 H       1  UNL1        0.0660
     19 H           1.4631   -0.2500    0.0000 H       1  UNL1        0.0660
     20 H           2.3100   -0.4769    0.0000 H       1  UNL1        0.0660
     21 H           6.3301   -2.0600    0.0000 H       1  UNL1        0.2921
@<TRIPOS>BOND
     1     1     4    1
     2     1    10    1
     3     2     5    1
     4     2    11    1
     5     3     8    1
     6     3    21    1
     7     4     5   ar
     8     4     6   ar
     9     5     7   ar
    10     6     8   ar
    11     6    12    1
    12     7     9   ar
    13     7    13    1
    14     8     9   ar
    15     9    14    1
    16    10    15    1
    17    10    16    1
    18    10    17    1
    19    11    18    1
    20    11    19    1
    21    11    20    1
