@<TRIPOS>MOLECULE
IMPHY009666
 15 15 0 0 0
SMALL
GASTEIGER

@<TRIPOS>ATOM
      1 N           2.8090   -0.2694    0.0000 N.3     1  UNL1       -0.2981
      2 C           3.6180    0.3184    0.0000 C.3     1  UNL1        0.0172
      3 C           2.0000    0.3184    0.0000 C.3     1  UNL1        0.0172
      4 C           3.3090    1.2694    0.0000 C.2     1  UNL1       -0.0728
      5 C           2.3090    1.2694    0.0000 C.2     1  UNL1       -0.0728
      6 C           2.8090   -1.2694    0.0000 C.3     1  UNL1       -0.0121
      7 H           3.9280   -0.2186    0.0000 H       1  UNL1        0.0470
      8 H           4.1844    0.5705    0.0000 H       1  UNL1        0.0470
      9 H           1.4336    0.5705    0.0000 H       1  UNL1        0.0470
     10 H           1.6900   -0.2186    0.0000 H       1  UNL1        0.0470
     11 H           3.6734    1.7710    0.0000 H       1  UNL1        0.0582
     12 H           1.9446    1.7710    0.0000 H       1  UNL1        0.0582
     13 H           2.1890   -1.2694    0.0000 H       1  UNL1        0.0391
     14 H           2.8090   -1.8894    0.0000 H       1  UNL1        0.0391
     15 H           3.4290   -1.2694    0.0000 H       1  UNL1        0.0391
@<TRIPOS>BOND
     1     1     2    1
     2     1     3    1
     3     1     6    1
     4     2     4    1
     5     2     7    1
     6     2     8    1
     7     3     5    1
     8     3     9    1
     9     3    10    1
    10     4     5    2
    11     4    11    1
    12     5    12    1
    13     6    13    1
    14     6    14    1
    15     6    15    1
