@<TRIPOS>MOLECULE
IMPHY015242
 30 29 0 0 0
SMALL
GASTEIGER

@<TRIPOS>ATOM
      1 C           3.7320    0.2500    0.0000 C.3     1  UNL1       -0.0439
      2 C           4.5981    0.7500    0.0000 C.3     1  UNL1       -0.0470
      3 C           2.8660    0.7500    0.0000 C.3     1  UNL1       -0.0533
      4 C           5.4641    0.2500    0.0000 C.3     1  UNL1       -0.0343
      5 C           3.7320   -0.7500    0.0000 C.3     1  UNL1       -0.0624
      6 C           2.0000    0.2500    0.0000 C.3     1  UNL1       -0.0650
      7 C           6.3301    0.7500    0.0000 C.2     1  UNL1       -0.0853
      8 C           7.1962    0.2500    0.0000 C.2     1  UNL1       -0.0796
      9 C           8.0622    0.7500    0.0000 C.3     1  UNL1       -0.0440
     10 C           7.1962   -0.7500    0.0000 C.3     1  UNL1       -0.0440
     11 H           4.2690   -0.0600    0.0000 H       1  UNL1        0.0298
     12 H           4.9966    1.2250    0.0000 H       1  UNL1        0.0271
     13 H           4.1996    1.2250    0.0000 H       1  UNL1        0.0271
     14 H           3.2646    1.2250    0.0000 H       1  UNL1        0.0265
     15 H           2.4675    1.2250    0.0000 H       1  UNL1        0.0265
     16 H           5.0656   -0.2249    0.0000 H       1  UNL1        0.0307
     17 H           5.8626   -0.2249    0.0000 H       1  UNL1        0.0307
     18 H           3.1120   -0.7500    0.0000 H       1  UNL1        0.0232
     19 H           3.7320   -1.3700    0.0000 H       1  UNL1        0.0232
     20 H           4.3520   -0.7500    0.0000 H       1  UNL1        0.0232
     21 H           1.6900    0.7869    0.0000 H       1  UNL1        0.0230
     22 H           1.4631   -0.0600    0.0000 H       1  UNL1        0.0230
     23 H           2.3100   -0.2869    0.0000 H       1  UNL1        0.0230
     24 H           6.3301    1.3700    0.0000 H       1  UNL1        0.0571
     25 H           8.3722    0.2131    0.0000 H       1  UNL1        0.0274
     26 H           8.5991    1.0600    0.0000 H       1  UNL1        0.0274
     27 H           7.7522    1.2869    0.0000 H       1  UNL1        0.0274
     28 H           6.5762   -0.7500    0.0000 H       1  UNL1        0.0274
     29 H           7.1962   -1.3700    0.0000 H       1  UNL1        0.0274
     30 H           7.8162   -0.7500    0.0000 H       1  UNL1        0.0274
@<TRIPOS>BOND
     1     1     2    1
     2     1     3    1
     3     1     5    1
     4     1    11    1
     5     2     4    1
     6     2    12    1
     7     2    13    1
     8     3     6    1
     9     3    14    1
    10     3    15    1
    11     4     7    1
    12     4    16    1
    13     4    17    1
    14     5    18    1
    15     5    19    1
    16     5    20    1
    17     6    21    1
    18     6    22    1
    19     6    23    1
    20     7     8    2
    21     7    24    1
    22     8     9    1
    23     8    10    1
    24     9    25    1
    25     9    26    1
    26     9    27    1
    27    10    28    1
    28    10    29    1
    29    10    30    1
