@<TRIPOS>MOLECULE
IMPHY010347
 97 100 0 0 0
SMALL
GASTEIGER

@<TRIPOS>ATOM
      1 O           8.5991   -0.5950    0.0000 O.3     1  UNL1       -0.3403
      2 O           6.8671   -0.5950    0.0000 O.3     1  UNL1       -0.3412
      3 O           6.8671   -3.5950    0.0000 O.3     1  UNL1       -0.3408
      4 O           8.5991    3.4050    0.0000 O.3     1  UNL1       -0.3408
      5 O           9.4651    1.9050    0.0000 O.3     1  UNL1       -0.3315
      6 O          11.1972    4.9050    0.0000 O.3     1  UNL1       -0.3414
      7 O           5.1350   -2.5950    0.0000 O.3     1  UNL1       -0.3865
      8 O           5.1350   -3.5950    0.0000 O.3     1  UNL1       -0.3315
      9 O           6.8671    0.4050    0.0000 O.3     1  UNL1       -0.3864
     10 O           6.8671    2.4050    0.0000 O.3     1  UNL1       -0.3841
     11 O          10.3312    2.4050    0.0000 O.3     1  UNL1       -0.3865
     12 O           6.8671   -5.5950    0.0000 O.3     1  UNL1       -0.3841
     13 O          10.3312    6.4050    0.0000 O.3     1  UNL1       -0.3654
     14 O           5.1350    0.4050    0.0000 O.3     1  UNL1       -0.3924
     15 O           5.1350   -6.5950    0.0000 O.3     1  UNL1       -0.3864
     16 O           3.4030   -5.5950    0.0000 O.3     1  UNL1       -0.3860
     17 O          11.1972    0.9050    0.0000 O.3     1  UNL1       -0.4788
     18 O          12.9292    3.9050    0.0000 O.3     1  UNL1       -0.3924
     19 O          10.3312   -0.5950    0.0000 O.2     1  UNL1       -0.2480
     20 O           9.4651   -1.0950    0.0000 O.2     1  UNL1       -0.2761
     21 O           2.5369   -4.0950    0.0000 O.3     1  UNL1       -0.4788
     22 O           3.4030   -2.5950    0.0000 O.2     1  UNL1       -0.2480
     23 O           7.7331    6.9050    0.0000 O.2     1  UNL1       -0.2761
     24 N           8.5991   -2.5950    0.0000 N.am    1  UNL1       -0.3053
     25 N           8.5991    5.4050    0.0000 N.am    1  UNL1       -0.3053
     26 C           6.8671   -2.5950    0.0000 C.3     1  UNL1        0.1130
     27 C           7.7331   -2.0950    0.0000 C.3     1  UNL1        0.1026
     28 C           7.7331   -1.0950    0.0000 C.3     1  UNL1        0.1808
     29 C           6.0010   -2.0950    0.0000 C.3     1  UNL1        0.1116
     30 C           8.5991    0.4050    0.0000 C.3     1  UNL1        0.1266
     31 C           6.0010   -1.0950    0.0000 C.3     1  UNL1        0.1130
     32 C           7.7331    0.9050    0.0000 C.3     1  UNL1        0.1149
     33 C           7.7331    1.9050    0.0000 C.3     1  UNL1        0.1342
     34 C           9.4651    3.9050    0.0000 C.3     1  UNL1        0.1130
     35 C           8.5991    2.4050    0.0000 C.3     1  UNL1        0.1890
     36 C           9.4651    0.9050    0.0000 C.3     1  UNL1        0.1863
     37 C           9.4651    4.9050    0.0000 C.3     1  UNL1        0.1024
     38 C          10.3312    3.4050    0.0000 C.3     1  UNL1        0.1116
     39 C           6.0010   -4.0950    0.0000 C.3     1  UNL1        0.1890
     40 C          11.1972    3.9050    0.0000 C.3     1  UNL1        0.1130
     41 C           6.0010   -5.0950    0.0000 C.3     1  UNL1        0.1342
     42 C          10.3312    5.4050    0.0000 C.3     1  UNL1        0.1776
     43 C           5.1350   -0.5950    0.0000 C.3     1  UNL1        0.0730
     44 C           5.1350   -5.5950    0.0000 C.3     1  UNL1        0.1145
     45 C           4.2690   -5.0950    0.0000 C.3     1  UNL1        0.1201
     46 C           4.2690   -4.0950    0.0000 C.3     1  UNL1        0.1859
     47 C          10.3312    0.4050    0.0000 C.2     1  UNL1        0.3367
     48 C          12.0632    3.4050    0.0000 C.3     1  UNL1        0.0730
     49 C           9.4651   -2.0950    0.0000 C.2     1  UNL1        0.2104
     50 C           3.4030   -3.5950    0.0000 C.2     1  UNL1        0.3367
     51 C           8.5991    6.4050    0.0000 C.2     1  UNL1        0.2104
     52 C          10.3312   -2.5950    0.0000 C.3     1  UNL1        0.0122
     53 C           9.4651    6.9050    0.0000 C.3     1  UNL1        0.0122
     54 H           7.4040   -2.9050    0.0000 H       1  UNL1        0.0644
     55 H           8.2700   -1.7850    0.0000 H       1  UNL1        0.0575
     56 H           7.7331   -0.4750    0.0000 H       1  UNL1        0.0930
     57 H           5.4641   -1.7850    0.0000 H       1  UNL1        0.0647
     58 H           8.0622    0.0950    0.0000 H       1  UNL1        0.0655
     59 H           6.0010   -0.4750    0.0000 H       1  UNL1        0.0647
     60 H           7.1962    1.2150    0.0000 H       1  UNL1        0.0648
     61 H           7.7331    2.5250    0.0000 H       1  UNL1        0.0671
     62 H           9.4651    3.2850    0.0000 H       1  UNL1        0.0644
     63 H           9.1360    2.7150    0.0000 H       1  UNL1        0.0938
     64 H          10.0021    1.2150    0.0000 H       1  UNL1        0.0742
     65 H           9.4651    5.5250    0.0000 H       1  UNL1        0.0575
     66 H          10.8681    3.0950    0.0000 H       1  UNL1        0.0647
     67 H           6.0010   -3.4750    0.0000 H       1  UNL1        0.0938
     68 H          11.7341    4.2150    0.0000 H       1  UNL1        0.0647
     69 H           8.5991   -3.2150    0.0000 H       1  UNL1        0.1492
     70 H           6.5380   -4.7850    0.0000 H       1  UNL1        0.0671
     71 H          10.8681    5.7150    0.0000 H       1  UNL1        0.0928
     72 H           4.5244   -0.4873    0.0000 H       1  UNL1        0.0584
     73 H           4.9230   -1.1776    0.0000 H       1  UNL1        0.0584
     74 H           5.6720   -5.9050    0.0000 H       1  UNL1        0.0648
     75 H           4.2690   -5.7150    0.0000 H       1  UNL1        0.0652
     76 H           4.2690   -3.4750    0.0000 H       1  UNL1        0.0741
     77 H           4.5981   -2.2850    0.0000 H       1  UNL1        0.2100
     78 H           8.0622    5.0950    0.0000 H       1  UNL1        0.1492
     79 H           6.3301    0.7150    0.0000 H       1  UNL1        0.2100
     80 H          11.6647    2.9300    0.0000 H       1  UNL1        0.0584
     81 H          12.4617    2.9300    0.0000 H       1  UNL1        0.0584
     82 H           6.8671    3.0250    0.0000 H       1  UNL1        0.2101
     83 H          10.8681    2.0950    0.0000 H       1  UNL1        0.2100
     84 H           6.8671   -6.2150    0.0000 H       1  UNL1        0.2101
     85 H          10.8681    6.7150    0.0000 H       1  UNL1        0.2125
     86 H           4.5981    0.7150    0.0000 H       1  UNL1        0.2095
     87 H           5.6720   -6.9050    0.0000 H       1  UNL1        0.2100
     88 H           3.4030   -6.2150    0.0000 H       1  UNL1        0.2100
     89 H          10.0212   -3.1319    0.0000 H       1  UNL1        0.0322
     90 H          10.8681   -2.9050    0.0000 H       1  UNL1        0.0322
     91 H          10.6412   -2.0581    0.0000 H       1  UNL1        0.0322
     92 H          11.7341    0.5950    0.0000 H       1  UNL1        0.2951
     93 H          13.4662    3.5950    0.0000 H       1  UNL1        0.2095
     94 H           9.7751    6.3681    0.0000 H       1  UNL1        0.0322
     95 H          10.0021    7.2150    0.0000 H       1  UNL1        0.0322
     96 H           9.1551    7.4419    0.0000 H       1  UNL1        0.0322
     97 H           2.0000   -3.7850    0.0000 H       1  UNL1        0.2951
@<TRIPOS>BOND
     1    28     1    1
     2    30     1    1
     3     2    28    1
     4     2    31    1
     5     3    26    1
     6    39     3    1
     7    34     4    1
     8    35     4    1
     9     5    35    1
    10     5    36    1
    11     6    40    1
    12     6    42    1
    13    29     7    1
    14     7    77    1
    15     8    39    1
    16     8    46    1
    17    32     9    1
    18     9    79    1
    19    33    10    1
    20    10    82    1
    21    38    11    1
    22    11    83    1
    23    41    12    1
    24    12    84    1
    25    13    42    1
    26    13    85    1
    27    14    43    1
    28    14    86    1
    29    44    15    1
    30    15    87    1
    31    16    45    1
    32    16    88    1
    33    17    47    1
    34    17    92    1
    35    18    48    1
    36    18    93    1
    37    19    47    2
    38    20    49    2
    39    21    50    1
    40    21    97    1
    41    22    50    2
    42    23    51    2
    43    27    24    1
    44    24    49   am
    45    24    69    1
    46    37    25    1
    47    25    51   am
    48    25    78    1
    49    26    27    1
    50    26    29    1
    51    26    54    1
    52    27    28    1
    53    27    55    1
    54    28    56    1
    55    29    31    1
    56    29    57    1
    57    30    32    1
    58    30    36    1
    59    30    58    1
    60    31    43    1
    61    31    59    1
    62    32    33    1
    63    32    60    1
    64    33    35    1
    65    33    61    1
    66    34    37    1
    67    34    38    1
    68    34    62    1
    69    35    63    1
    70    36    47    1
    71    36    64    1
    72    37    42    1
    73    37    65    1
    74    38    40    1
    75    38    66    1
    76    39    41    1
    77    39    67    1
    78    40    48    1
    79    40    68    1
    80    41    44    1
    81    41    70    1
    82    42    71    1
    83    43    72    1
    84    43    73    1
    85    44    45    1
    86    44    74    1
    87    45    46    1
    88    45    75    1
    89    46    50    1
    90    46    76    1
    91    48    80    1
    92    48    81    1
    93    49    52    1
    94    51    53    1
    95    52    89    1
    96    52    90    1
    97    52    91    1
    98    53    94    1
    99    53    95    1
   100    53    96    1
