@<TRIPOS>MOLECULE
IMPHY001522
 74 78 0 0 0
SMALL
GASTEIGER

@<TRIPOS>ATOM
      1 O           2.5357   -2.9400    0.0000 O.3     1  UNL1       -0.3915
      2 N          10.4749    2.5244    0.0000 N.3     1  UNL1       -0.3127
      3 C           7.9288    0.1124    0.0000 C.3     1  UNL1       -0.0258
      4 C           7.9288   -0.8876    0.0000 C.3     1  UNL1       -0.0320
      5 C           7.0628   -1.3876    0.0000 C.3     1  UNL1       -0.0307
      6 C           6.1968   -0.8876    0.0000 C.3     1  UNL1       -0.0285
      7 C           8.8750    0.4171    0.0000 C.3     1  UNL1       -0.0314
      8 C           7.0628    0.6124    0.0000 C.3     1  UNL1       -0.0468
      9 C           8.8750   -1.1924    0.0000 C.3     1  UNL1       -0.0492
     10 C           5.2868   -1.3945    0.0000 C.3     1  UNL1       -0.0078
     11 C           6.1968    0.1124    0.0000 C.3     1  UNL1       -0.0486
     12 C           9.4586   -0.3876    0.0000 C.3     1  UNL1       -0.0491
     13 C           9.1857    1.3676    0.0000 C.3     1  UNL1       -0.0251
     14 C           7.0789   -2.4292    0.0000 C.3     1  UNL1       -0.0311
     15 C           7.9288    1.1124    0.0000 C.3     1  UNL1       -0.0590
     16 C           5.2787   -2.4361    0.0000 C.2     1  UNL1       -0.0648
     17 C           4.3599   -0.8304    0.0000 C.3     1  UNL1       -0.0413
     18 C           6.1808   -2.9569    0.0000 C.2     1  UNL1       -0.0839
     19 C          10.1642    1.5738    0.0000 C.3     1  UNL1        0.0105
     20 C           5.2945   -0.3945    0.0000 C.3     1  UNL1       -0.0556
     21 C           4.3433   -2.9858    0.0000 C.3     1  UNL1       -0.0051
     22 C           3.4120   -1.3584    0.0000 C.3     1  UNL1       -0.0258
     23 C           8.5179    2.1119    0.0000 C.3     1  UNL1       -0.0607
     24 C           3.4037   -2.4433    0.0000 C.3     1  UNL1        0.0590
     25 C          10.8321    0.8295    0.0000 C.3     1  UNL1       -0.0370
     26 C          11.8106    1.0357    0.0000 C.3     1  UNL1       -0.0479
     27 C          11.4534    2.7306    0.0000 C.3     1  UNL1       -0.0013
     28 C          12.1212    1.9863    0.0000 C.3     1  UNL1       -0.0313
     29 C          13.0997    2.1925    0.0000 C.3     1  UNL1       -0.0613
     30 H           8.0188   -1.7329    0.0000 H       1  UNL1        0.0309
     31 H           7.8022   -1.8070    0.0000 H       1  UNL1        0.0309
     32 H           6.9329   -0.4626    0.0000 H       1  UNL1        0.0312
     33 H           9.7148    0.5490    0.0000 H       1  UNL1        0.0309
     34 H           7.4613    1.0873    0.0000 H       1  UNL1        0.0271
     35 H           6.6643    1.0873    0.0000 H       1  UNL1        0.0271
     36 H           8.6240   -1.7593    0.0000 H       1  UNL1        0.0268
     37 H           9.4124   -1.5016    0.0000 H       1  UNL1        0.0268
     38 H           5.9847    0.6950    0.0000 H       1  UNL1        0.0268
     39 H           5.5862    0.0047    0.0000 H       1  UNL1        0.0268
     40 H           9.9195   -0.8024    0.0000 H       1  UNL1        0.0268
     41 H           9.9195    0.0271    0.0000 H       1  UNL1        0.0268
     42 H           9.3783    1.9569    0.0000 H       1  UNL1        0.0316
     43 H           7.2969   -3.0096    0.0000 H       1  UNL1        0.0310
     44 H           7.6880   -2.3136    0.0000 H       1  UNL1        0.0310
     45 H           8.5488    1.1124    0.0000 H       1  UNL1        0.0235
     46 H           7.9288    1.7324    0.0000 H       1  UNL1        0.0235
     47 H           7.3088    1.1124    0.0000 H       1  UNL1        0.0235
     48 H           4.7681   -0.3638    0.0000 H       1  UNL1        0.0274
     49 H           3.9700   -0.3484    0.0000 H       1  UNL1        0.0274
     50 H           6.1832   -3.5769    0.0000 H       1  UNL1        0.0572
     51 H          10.9959    1.7491    0.0000 H       1  UNL1        0.0463
     52 H           5.9145   -0.3993    0.0000 H       1  UNL1        0.0238
     53 H           5.2993    0.2255    0.0000 H       1  UNL1        0.0238
     54 H           4.6745   -0.3897    0.0000 H       1  UNL1        0.0238
     55 H           3.9460   -3.4618    0.0000 H       1  UNL1        0.0335
     56 H           4.7443   -3.4587    0.0000 H       1  UNL1        0.0335
     57 H           3.2075   -0.7731    0.0000 H       1  UNL1        0.0290
     58 H           2.8004   -1.4597    0.0000 H       1  UNL1        0.0290
     59 H           8.9793    2.5260    0.0000 H       1  UNL1        0.0233
     60 H           8.1038    2.5734    0.0000 H       1  UNL1        0.0233
     61 H           8.0564    1.6978    0.0000 H       1  UNL1        0.0233
     62 H           2.8686   -2.1302    0.0000 H       1  UNL1        0.0596
     63 H          10.3057    0.5019    0.0000 H       1  UNL1        0.0280
     64 H          11.0633    0.2543    0.0000 H       1  UNL1        0.0280
     65 H          10.0608    2.9858    0.0000 H       1  UNL1        0.1222
     66 H          11.8311    0.4161    0.0000 H       1  UNL1        0.0269
     67 H          12.4244    0.9484    0.0000 H       1  UNL1        0.0269
     68 H          11.9797    3.0582    0.0000 H       1  UNL1        0.0427
     69 H          11.2221    3.3058    0.0000 H       1  UNL1        0.0427
     70 H          12.5353    1.5248    0.0000 H       1  UNL1        0.0310
     71 H           2.0000   -2.6279    0.0000 H       1  UNL1        0.2098
     72 H          13.2276    1.5858    0.0000 H       1  UNL1        0.0233
     73 H          13.7064    2.3203    0.0000 H       1  UNL1        0.0233
     74 H          12.9719    2.7992    0.0000 H       1  UNL1        0.0233
@<TRIPOS>BOND
     1    24     1    1
     2     1    71    1
     3     2    19    1
     4     2    27    1
     5     2    65    1
     6     3     4    1
     7     3     7    1
     8     3     8    1
     9     3    15    1
    10     4     5    1
    11     4     9    1
    12     4    30    1
    13     5     6    1
    14     5    14    1
    15     5    31    1
    16     6    10    1
    17     6    11    1
    18     6    32    1
    19     7    12    1
    20     7    13    1
    21     7    33    1
    22     8    11    1
    23     8    34    1
    24     8    35    1
    25     9    12    1
    26     9    36    1
    27     9    37    1
    28    10    16    1
    29    10    17    1
    30    10    20    1
    31    11    38    1
    32    11    39    1
    33    12    40    1
    34    12    41    1
    35    13    19    1
    36    13    23    1
    37    13    42    1
    38    14    18    1
    39    14    43    1
    40    14    44    1
    41    15    45    1
    42    15    46    1
    43    15    47    1
    44    16    18    2
    45    16    21    1
    46    17    22    1
    47    17    48    1
    48    17    49    1
    49    18    50    1
    50    19    25    1
    51    19    51    1
    52    20    52    1
    53    20    53    1
    54    20    54    1
    55    21    24    1
    56    21    55    1
    57    21    56    1
    58    22    24    1
    59    22    57    1
    60    22    58    1
    61    23    59    1
    62    23    60    1
    63    23    61    1
    64    24    62    1
    65    25    26    1
    66    25    63    1
    67    25    64    1
    68    26    28    1
    69    26    66    1
    70    26    67    1
    71    27    28    1
    72    27    68    1
    73    27    69    1
    74    28    29    1
    75    28    70    1
    76    29    72    1
    77    29    73    1
    78    29    74    1
