@<TRIPOS>MOLECULE
IMPHY012796
 65 65 0 0 0
SMALL
GASTEIGER

@<TRIPOS>ATOM
      1 O           2.0000   -5.0000    0.0000 O.2     1  UNL1       -0.2837
      2 O           2.0000   -7.0000    0.0000 O.2     1  UNL1       -0.4911
      3 O           5.4641   -7.0000    0.0000 O.2     1  UNL1       -0.2878
      4 C           5.4641   -1.0000    0.0000 C.3     1  UNL1       -0.0531
      5 C           5.4641   -2.0000    0.0000 C.3     1  UNL1       -0.0530
      6 C           6.3301   -0.5000    0.0000 C.3     1  UNL1       -0.0530
      7 C           4.5981   -2.5000    0.0000 C.3     1  UNL1       -0.0528
      8 C           6.3301    0.5000    0.0000 C.3     1  UNL1       -0.0528
      9 C           4.5981   -3.5000    0.0000 C.3     1  UNL1       -0.0489
     10 C           7.1962    1.0000    0.0000 C.3     1  UNL1       -0.0496
     11 C           3.7320   -4.0000    0.0000 C.3     1  UNL1       -0.0238
     12 C           7.1962    2.0000    0.0000 C.3     1  UNL1       -0.0348
     13 C           7.1962    5.0000    0.0000 C.3     1  UNL1       -0.0496
     14 C           6.3301    5.5000    0.0000 C.3     1  UNL1       -0.0528
     15 C           7.1962    4.0000    0.0000 C.3     1  UNL1       -0.0348
     16 C           3.7320   -5.0000    0.0000 C.2     1  UNL1        0.0066
     17 C           8.0622    2.5000    0.0000 C.2     1  UNL1       -0.0879
     18 C           6.3301    6.5000    0.0000 C.3     1  UNL1       -0.0533
     19 C           8.0622    3.5000    0.0000 C.2     1  UNL1       -0.0879
     20 C           5.4641    7.0000    0.0000 C.3     1  UNL1       -0.0559
     21 C           2.8660   -5.5000    0.0000 C.2     1  UNL1        0.2236
     22 C           4.5981   -5.5000    0.0000 C.2     1  UNL1       -0.0079
     23 C           5.4641    8.0000    0.0000 C.3     1  UNL1       -0.0653
     24 C           2.8660   -6.5000    0.0000 C.2     1  UNL1        0.1704
     25 C           4.5981   -6.5000    0.0000 C.2     1  UNL1        0.1829
     26 C           3.7320   -7.0000    0.0000 C.2     1  UNL1        0.0306
     27 C           2.0000   -8.0000    0.0000 C.3     1  UNL1        0.0790
     28 H           5.2520   -0.4174    0.0000 H       1  UNL1        0.0265
     29 H           4.8535   -1.1077    0.0000 H       1  UNL1        0.0265
     30 H           5.6762   -2.5826    0.0000 H       1  UNL1        0.0265
     31 H           6.0747   -1.8923    0.0000 H       1  UNL1        0.0265
     32 H           6.5422   -1.0826    0.0000 H       1  UNL1        0.0265
     33 H           6.9407   -0.3923    0.0000 H       1  UNL1        0.0265
     34 H           4.3860   -1.9174    0.0000 H       1  UNL1        0.0265
     35 H           3.9875   -2.6077    0.0000 H       1  UNL1        0.0265
     36 H           6.1181    1.0826    0.0000 H       1  UNL1        0.0265
     37 H           5.7196    0.3923    0.0000 H       1  UNL1        0.0265
     38 H           4.8101   -4.0826    0.0000 H       1  UNL1        0.0268
     39 H           5.2087   -3.3923    0.0000 H       1  UNL1        0.0268
     40 H           7.4082    0.4174    0.0000 H       1  UNL1        0.0268
     41 H           7.8067    1.1077    0.0000 H       1  UNL1        0.0268
     42 H           3.5200   -3.4174    0.0000 H       1  UNL1        0.0314
     43 H           3.1215   -4.1077    0.0000 H       1  UNL1        0.0314
     44 H           6.9841    2.5826    0.0000 H       1  UNL1        0.0307
     45 H           6.5856    1.8923    0.0000 H       1  UNL1        0.0307
     46 H           7.8067    4.8923    0.0000 H       1  UNL1        0.0268
     47 H           7.4082    5.5826    0.0000 H       1  UNL1        0.0268
     48 H           5.7196    5.6077    0.0000 H       1  UNL1        0.0265
     49 H           6.1181    4.9174    0.0000 H       1  UNL1        0.0265
     50 H           6.5856    4.1077    0.0000 H       1  UNL1        0.0307
     51 H           6.9841    3.4174    0.0000 H       1  UNL1        0.0307
     52 H           8.5991    2.1900    0.0000 H       1  UNL1        0.0569
     53 H           6.9407    6.3923    0.0000 H       1  UNL1        0.0265
     54 H           6.5422    7.0826    0.0000 H       1  UNL1        0.0265
     55 H           8.5991    3.8100    0.0000 H       1  UNL1        0.0569
     56 H           4.8535    7.1077    0.0000 H       1  UNL1        0.0263
     57 H           5.2520    6.4174    0.0000 H       1  UNL1        0.0263
     58 H           5.1350   -5.1900    0.0000 H       1  UNL1        0.0660
     59 H           6.0841    8.0000    0.0000 H       1  UNL1        0.0230
     60 H           5.4641    8.6200    0.0000 H       1  UNL1        0.0230
     61 H           4.8441    8.0000    0.0000 H       1  UNL1        0.0230
     62 H           3.7320   -7.6200    0.0000 H       1  UNL1        0.0694
     63 H           1.3800   -8.0000    0.0000 H       1  UNL1        0.0660
     64 H           2.0000   -8.6200    0.0000 H       1  UNL1        0.0660
     65 H           2.6200   -8.0000    0.0000 H       1  UNL1        0.0660
@<TRIPOS>BOND
     1     1    21    2
     2     2    24    1
     3     2    27    1
     4     3    25    2
     5     4     5    1
     6     4     6    1
     7     4    28    1
     8     4    29    1
     9     5     7    1
    10     5    30    1
    11     5    31    1
    12     6     8    1
    13     6    32    1
    14     6    33    1
    15     7     9    1
    16     7    34    1
    17     7    35    1
    18     8    10    1
    19     8    36    1
    20     8    37    1
    21     9    11    1
    22     9    38    1
    23     9    39    1
    24    10    12    1
    25    10    40    1
    26    10    41    1
    27    11    16    1
    28    11    42    1
    29    11    43    1
    30    12    17    1
    31    12    44    1
    32    12    45    1
    33    13    14    1
    34    13    15    1
    35    13    46    1
    36    13    47    1
    37    14    18    1
    38    14    48    1
    39    14    49    1
    40    15    19    1
    41    15    50    1
    42    15    51    1
    43    16    21    1
    44    16    22    2
    45    17    19    2
    46    17    52    1
    47    18    20    1
    48    18    53    1
    49    18    54    1
    50    19    55    1
    51    20    23    1
    52    20    56    1
    53    20    57    1
    54    21    24    1
    55    22    25    1
    56    22    58    1
    57    23    59    1
    58    23    60    1
    59    23    61    1
    60    24    26    2
    61    25    26    1
    62    26    62    1
    63    27    63    1
    64    27    64    1
    65    27    65    1
