@<TRIPOS>MOLECULE
IMPHY016138
 24 25 0 0 0
SMALL
GASTEIGER

@<TRIPOS>ATOM
      1 C           2.8660   -0.2673    0.0000 C.ar    1  UNL1       -0.0399
      2 C           3.7320    0.2327    0.0000 C.ar    1  UNL1       -0.0147
      3 C           3.7320    1.2327    0.0000 C.ar    1  UNL1       -0.0176
      4 C           2.8660   -1.2673    0.0000 C.3     1  UNL1       -0.0300
      5 C           2.0000    0.2327    0.0000 C.ar    1  UNL1       -0.0580
      6 C           4.6260   -0.3020    0.0000 C.ar    1  UNL1       -0.0538
      7 C           2.8660    1.7327    0.0000 C.ar    1  UNL1       -0.0540
      8 C           4.6260    1.7673    0.0000 C.ar    1  UNL1       -0.0540
      9 C           2.0000    1.2327    0.0000 C.ar    1  UNL1       -0.0609
     10 C           2.0000   -1.7673    0.0000 C.3     1  UNL1       -0.0612
     11 C           5.5321    0.2119    0.0000 C.ar    1  UNL1       -0.0612
     12 C           5.5321    1.2535    0.0000 C.ar    1  UNL1       -0.0612
     13 H           3.0781   -1.8499    0.0000 H       1  UNL1        0.0311
     14 H           3.4766   -1.1597    0.0000 H       1  UNL1        0.0311
     15 H           1.4631   -0.0773    0.0000 H       1  UNL1        0.0620
     16 H           4.6188   -0.9220    0.0000 H       1  UNL1        0.0624
     17 H           2.8660    2.3527    0.0000 H       1  UNL1        0.0624
     18 H           4.6188    2.3873    0.0000 H       1  UNL1        0.0624
     19 H           1.4631    1.5427    0.0000 H       1  UNL1        0.0618
     20 H           1.6900   -1.2304    0.0000 H       1  UNL1        0.0233
     21 H           1.4631   -2.0773    0.0000 H       1  UNL1        0.0233
     22 H           2.3100   -2.3043    0.0000 H       1  UNL1        0.0233
     23 H           6.0678   -0.1002    0.0000 H       1  UNL1        0.0618
     24 H           6.0678    1.5656    0.0000 H       1  UNL1        0.0618
@<TRIPOS>BOND
     1     1     2   ar
     2     1     4    1
     3     1     5   ar
     4     2     3   ar
     5     2     6   ar
     6     3     7   ar
     7     3     8   ar
     8     4    10    1
     9     4    13    1
    10     4    14    1
    11     5     9   ar
    12     5    15    1
    13     6    11   ar
    14     6    16    1
    15     7     9   ar
    16     7    17    1
    17     8    12   ar
    18     8    18    1
    19     9    19    1
    20    10    20    1
    21    10    21    1
    22    10    22    1
    23    11    12   ar
    24    11    23    1
    25    12    24    1
