@<TRIPOS>MOLECULE
IMPHY010878
 37 38 0 0 0
SMALL
GASTEIGER

@<TRIPOS>ATOM
      1 O           2.0000    0.2500    0.0000 O.3     1  UNL1       -0.3856
      2 O           2.8660   -4.2500    0.0000 O.3     1  UNL1       -0.4951
      3 O           5.4641    1.2500    0.0000 O.2     1  UNL1       -0.2702
      4 N           3.7320    1.2500    0.0000 N.am    1  UNL1       -0.3086
      5 C           2.8660   -0.2500    0.0000 C.3     1  UNL1        0.0956
      6 C           3.7320    0.2500    0.0000 C.3     1  UNL1        0.0421
      7 C           2.8660   -1.2500    0.0000 C.ar    1  UNL1       -0.0174
      8 C           2.0000   -1.7500    0.0000 C.ar    1  UNL1       -0.0526
      9 C           3.7320   -1.7500    0.0000 C.ar    1  UNL1       -0.0526
     10 C           2.0000   -2.7500    0.0000 C.ar    1  UNL1       -0.0196
     11 C           3.7320   -2.7500    0.0000 C.ar    1  UNL1       -0.0196
     12 C           4.5981    1.7500    0.0000 C.2     1  UNL1        0.2442
     13 C           2.8660   -3.2500    0.0000 C.ar    1  UNL1        0.1201
     14 C           4.5981    2.7500    0.0000 C.ar    1  UNL1        0.0367
     15 C           5.4641    3.2500    0.0000 C.ar    1  UNL1       -0.0496
     16 C           3.7320    3.2500    0.0000 C.ar    1  UNL1       -0.0496
     17 C           5.4641    4.2500    0.0000 C.ar    1  UNL1       -0.0610
     18 C           3.7320    4.2500    0.0000 C.ar    1  UNL1       -0.0610
     19 C           4.5981    4.7500    0.0000 C.ar    1  UNL1       -0.0617
     20 C           2.0000   -4.7500    0.0000 C.3     1  UNL1        0.0788
     21 H           2.8660    0.6000    0.0000 H       1  UNL1        0.0659
     22 H           3.9441   -0.3326    0.0000 H       1  UNL1        0.0491
     23 H           4.3426    0.3577    0.0000 H       1  UNL1        0.0491
     24 H           3.1951    1.5600    0.0000 H       1  UNL1        0.1491
     25 H           1.4631   -1.4400    0.0000 H       1  UNL1        0.0622
     26 H           4.2690   -1.4400    0.0000 H       1  UNL1        0.0622
     27 H           1.4631   -3.0600    0.0000 H       1  UNL1        0.0654
     28 H           4.2690   -3.0600    0.0000 H       1  UNL1        0.0654
     29 H           2.0000    0.8700    0.0000 H       1  UNL1        0.2103
     30 H           6.0010    2.9400    0.0000 H       1  UNL1        0.0625
     31 H           3.1951    2.9400    0.0000 H       1  UNL1        0.0625
     32 H           6.0010    4.5600    0.0000 H       1  UNL1        0.0618
     33 H           3.1951    4.5600    0.0000 H       1  UNL1        0.0618
     34 H           4.5981    5.3700    0.0000 H       1  UNL1        0.0618
     35 H           1.6900   -4.2131    0.0000 H       1  UNL1        0.0660
     36 H           1.4631   -5.0600    0.0000 H       1  UNL1        0.0660
     37 H           2.3100   -5.2869    0.0000 H       1  UNL1        0.0660
@<TRIPOS>BOND
     1     1     5    1
     2     1    29    1
     3     2    13    1
     4     2    20    1
     5     3    12    2
     6     4     6    1
     7     4    12   am
     8     4    24    1
     9     5     6    1
    10     5     7    1
    11     5    21    1
    12     6    22    1
    13     6    23    1
    14     7     8   ar
    15     7     9   ar
    16     8    10   ar
    17     8    25    1
    18     9    11   ar
    19     9    26    1
    20    10    13   ar
    21    10    27    1
    22    11    13   ar
    23    11    28    1
    24    12    14    1
    25    14    15   ar
    26    14    16   ar
    27    15    17   ar
    28    15    30    1
    29    16    18   ar
    30    16    31    1
    31    17    19   ar
    32    17    32    1
    33    18    19   ar
    34    18    33    1
    35    19    34    1
    36    20    35    1
    37    20    36    1
    38    20    37    1
