@<TRIPOS>MOLECULE
IMPHY005165
 51 55 0 0 0
SMALL
GASTEIGER

@<TRIPOS>ATOM
      1 O           7.1504    1.6734    0.0000 O.3     1  UNL1       -0.3939
      2 O           4.2494    1.4548    0.0000 O.3     1  UNL1       -0.4674
      3 O           5.8265    2.1707    0.0000 O.2     1  UNL1       -0.2501
      4 O          10.7954    0.1910    0.0000 O.3     1  UNL1       -0.5068
      5 N           5.4068   -1.5777    0.0000 N.3     1  UNL1       -0.2903
      6 N           6.7907    0.8173    0.0000 N.2     1  UNL1       -0.2537
      7 C           7.2907   -0.7215    0.0000 C.3     1  UNL1        0.0571
      8 C           5.6579    0.4469    0.0000 C.3     1  UNL1        0.1119
      9 C           3.8297   -0.3830    0.0000 C.3     1  UNL1        0.0021
     10 C           5.5237   -0.5427    0.0000 C.3     1  UNL1        0.0506
     11 C           6.4817   -0.1337    0.0000 C.2     1  UNL1        0.0483
     12 C           4.7222    0.0193    0.0000 C.3     1  UNL1       -0.0243
     13 C           7.1978   -1.7590    0.0000 C.3     1  UNL1       -0.0241
     14 C           6.2495   -2.1900    0.0000 C.3     1  UNL1        0.0010
     15 C           8.0997   -0.1337    0.0000 C.ar    1  UNL1       -0.0057
     16 C           3.7199   -1.3557    0.0000 C.2     1  UNL1       -0.0554
     17 C           4.5002   -1.9468    0.0000 C.3     1  UNL1        0.0209
     18 C           6.2399    1.2601    0.0000 C.3     1  UNL1        0.0617
     19 C           5.2446    1.3574    0.0000 C.2     1  UNL1        0.3171
     20 C           7.7907    0.8173    0.0000 C.ar    1  UNL1        0.0682
     21 C           9.1151   -0.3660    0.0000 C.ar    1  UNL1       -0.0141
     22 C           2.8008   -1.7497    0.0000 C.2     1  UNL1       -0.0864
     23 C           8.4757    1.6021    0.0000 C.ar    1  UNL1       -0.0326
     24 C           9.8181    0.4027    0.0000 C.ar    1  UNL1        0.1173
     25 C           9.4962    1.3934    0.0000 C.ar    1  UNL1       -0.0182
     26 C           2.0000   -1.1508    0.0000 C.3     1  UNL1       -0.0465
     27 C           3.8360    2.3654    0.0000 C.3     1  UNL1        0.0817
     28 H           3.1428    0.1177    0.0000 H       1  UNL1        0.0358
     29 H           5.1840    0.2365    0.0000 H       1  UNL1        0.0525
     30 H           5.1626    0.4556    0.0000 H       1  UNL1        0.0290
     31 H           4.3710    0.5302    0.0000 H       1  UNL1        0.0290
     32 H           7.3540   -2.3590    0.0000 H       1  UNL1        0.0290
     33 H           7.8157   -1.7078    0.0000 H       1  UNL1        0.0290
     34 H           5.8046   -2.6218    0.0000 H       1  UNL1        0.0427
     35 H           6.5989   -2.7022    0.0000 H       1  UNL1        0.0427
     36 H           4.0439   -2.3666    0.0000 H       1  UNL1        0.0473
     37 H           4.8322   -2.4704    0.0000 H       1  UNL1        0.0473
     38 H           6.1922    1.8783    0.0000 H       1  UNL1        0.0569
     39 H           6.6335    0.7811    0.0000 H       1  UNL1        0.0569
     40 H           9.2999   -0.9578    0.0000 H       1  UNL1        0.0658
     41 H           2.7274   -2.3654    0.0000 H       1  UNL1        0.0569
     42 H           8.2773    2.1895    0.0000 H       1  UNL1        0.0640
     43 H           7.2108    2.2905    0.0000 H       1  UNL1        0.2094
     44 H           9.9093    1.8557    0.0000 H       1  UNL1        0.0655
     45 H           2.3713   -0.6543    0.0000 H       1  UNL1        0.0272
     46 H           1.5035   -0.7795    0.0000 H       1  UNL1        0.0272
     47 H           1.6287   -1.6473    0.0000 H       1  UNL1        0.0272
     48 H           4.4006    2.6216    0.0000 H       1  UNL1        0.0661
     49 H           3.5798    2.9299    0.0000 H       1  UNL1        0.0661
     50 H           3.2715    2.1091    0.0000 H       1  UNL1        0.0661
     51 H          11.2120    0.6502    0.0000 H       1  UNL1        0.2921
@<TRIPOS>BOND
     1     1    18    1
     2     1    43    1
     3     2    19    1
     4     2    27    1
     5     3    19    2
     6     4    24    1
     7     4    51    1
     8     5    10    1
     9     5    14    1
    10     5    17    1
    11     6    11    2
    12     6    20    1
    13     7     8    1
    14     7    11    1
    15     7    13    1
    16     7    15    1
    17     8     9    1
    18     8    18    1
    19     8    19    1
    20     9    12    1
    21     9    16    1
    22     9    28    1
    23    10    11    1
    24    10    12    1
    25    10    29    1
    26    12    30    1
    27    12    31    1
    28    13    14    1
    29    13    32    1
    30    13    33    1
    31    14    34    1
    32    14    35    1
    33    15    20   ar
    34    15    21   ar
    35    16    17    1
    36    16    22    2
    37    17    36    1
    38    17    37    1
    39    18    38    1
    40    18    39    1
    41    20    23   ar
    42    21    24   ar
    43    21    40    1
    44    22    26    1
    45    22    41    1
    46    23    25   ar
    47    23    42    1
    48    24    25   ar
    49    25    44    1
    50    26    45    1
    51    26    46    1
    52    26    47    1
    53    27    48    1
    54    27    49    1
    55    27    50    1
