@<TRIPOS>MOLECULE
IMPHY007677
 32 33 0 0 0
SMALL
GASTEIGER

@<TRIPOS>ATOM
      1 O           5.4641    0.2500    0.0000 O.3     1  UNL1       -0.4563
      2 O           2.8660   -1.2500    0.0000 O.3     1  UNL1       -0.4943
      3 O           3.7320    0.2500    0.0000 O.2     1  UNL1       -0.2448
      4 C           6.3301    1.7500    0.0000 C.ar    1  UNL1       -0.0103
      5 C           5.4641    1.2500    0.0000 C.3     1  UNL1        0.1179
      6 C           4.5981   -1.2500    0.0000 C.ar    1  UNL1        0.1005
      7 C           3.7320   -1.7500    0.0000 C.ar    1  UNL1        0.1341
      8 C           4.5981   -0.2500    0.0000 C.2     1  UNL1        0.3431
      9 C           7.1962    1.2500    0.0000 C.ar    1  UNL1       -0.0554
     10 C           6.3301    2.7500    0.0000 C.ar    1  UNL1       -0.0554
     11 C           5.4641   -1.7500    0.0000 C.ar    1  UNL1       -0.0442
     12 C           3.7320   -2.7500    0.0000 C.ar    1  UNL1       -0.0191
     13 C           5.4641   -2.7500    0.0000 C.ar    1  UNL1       -0.0608
     14 C           4.5981   -3.2500    0.0000 C.ar    1  UNL1       -0.0583
     15 C           8.0622    1.7500    0.0000 C.ar    1  UNL1       -0.0614
     16 C           7.1962    3.2500    0.0000 C.ar    1  UNL1       -0.0614
     17 C           8.0622    2.7500    0.0000 C.ar    1  UNL1       -0.0617
     18 C           2.0000   -1.7500    0.0000 C.3     1  UNL1        0.0788
     19 H           5.2520    1.8326    0.0000 H       1  UNL1        0.0749
     20 H           4.8535    1.1423    0.0000 H       1  UNL1        0.0749
     21 H           7.1962    0.6300    0.0000 H       1  UNL1        0.0621
     22 H           5.7932    3.0600    0.0000 H       1  UNL1        0.0621
     23 H           6.0010   -1.4400    0.0000 H       1  UNL1        0.0627
     24 H           3.1951   -3.0600    0.0000 H       1  UNL1        0.0654
     25 H           6.0010   -3.0600    0.0000 H       1  UNL1        0.0618
     26 H           4.5981   -3.8700    0.0000 H       1  UNL1        0.0619
     27 H           8.5991    1.4400    0.0000 H       1  UNL1        0.0618
     28 H           7.1962    3.8700    0.0000 H       1  UNL1        0.0618
     29 H           8.5991    3.0600    0.0000 H       1  UNL1        0.0618
     30 H           1.6900   -1.2131    0.0000 H       1  UNL1        0.0660
     31 H           1.4631   -2.0600    0.0000 H       1  UNL1        0.0660
     32 H           2.3100   -2.2869    0.0000 H       1  UNL1        0.0660
@<TRIPOS>BOND
     1     1     5    1
     2     1     8    1
     3     2     7    1
     4     2    18    1
     5     3     8    2
     6     4     5    1
     7     4     9   ar
     8     4    10   ar
     9     5    19    1
    10     5    20    1
    11     6     7   ar
    12     6     8    1
    13     6    11   ar
    14     7    12   ar
    15     9    15   ar
    16     9    21    1
    17    10    16   ar
    18    10    22    1
    19    11    13   ar
    20    11    23    1
    21    12    14   ar
    22    12    24    1
    23    13    14   ar
    24    13    25    1
    25    14    26    1
    26    15    17   ar
    27    15    27    1
    28    16    17   ar
    29    16    28    1
    30    17    29    1
    31    18    30    1
    32    18    31    1
    33    18    32    1
