@<TRIPOS>MOLECULE
IMPHY007861
 93 98 0 0 0
SMALL
GASTEIGER

@<TRIPOS>ATOM
      1 O           8.6232   -3.2820    0.0000 O.3     1  UNL1       -0.3313
      2 O           6.0251   -5.7820    0.0000 O.3     1  UNL1       -0.3431
      3 O           7.7571   -5.7820    0.0000 O.3     1  UNL1       -0.3461
      4 O           9.4892   -5.7820    0.0000 O.3     1  UNL1       -0.3865
      5 O          11.2212   -4.7820    0.0000 O.3     1  UNL1       -0.3864
      6 O           9.4892   -1.7820    0.0000 O.3     1  UNL1       -0.4606
      7 O           5.1343    5.7800    0.0000 O.3     1  UNL1       -0.3313
      8 O          11.2212   -2.7820    0.0000 O.3     1  UNL1       -0.3829
      9 O           7.7571   -7.7820    0.0000 O.3     1  UNL1       -0.3841
     10 O           6.0251   -8.7820    0.0000 O.3     1  UNL1       -0.3864
     11 O           4.2930   -7.7820    0.0000 O.3     1  UNL1       -0.3866
     12 O           3.4099    7.7866    0.0000 O.3     1  UNL1       -0.3865
     13 O           5.1458    8.7799    0.0000 O.3     1  UNL1       -0.3864
     14 O           6.8663    5.7733    0.0000 O.3     1  UNL1       -0.4572
     15 O           6.8740    7.7733    0.0000 O.3     1  UNL1       -0.3829
     16 O           2.5381    6.2900    0.0000 O.3     1  UNL1       -0.3924
     17 O           7.7150    1.2700    0.0000 O.2     1  UNL1       -0.4544
     18 O           5.9495   -1.7547    0.0000 O.3     1  UNL1       -0.5058
     19 O           8.5945    4.7666    0.0000 O.3     1  UNL1       -0.5033
     20 O           5.1111   -0.2200    0.0000 O.2     1  UNL1       -0.2869
     21 C           8.6232   -4.2820    0.0000 C.3     1  UNL1        0.1144
     22 C           9.4892   -4.7820    0.0000 C.3     1  UNL1        0.1120
     23 C          10.3552   -4.2820    0.0000 C.3     1  UNL1        0.1152
     24 C          10.3552   -3.2820    0.0000 C.3     1  UNL1        0.1454
     25 C           6.8911   -7.2820    0.0000 C.3     1  UNL1        0.1341
     26 C           6.8911   -6.2820    0.0000 C.3     1  UNL1        0.1879
     27 C           6.0251   -7.7820    0.0000 C.3     1  UNL1        0.1140
     28 C           5.1591   -7.2820    0.0000 C.3     1  UNL1        0.1095
     29 C           9.4892   -2.7820    0.0000 C.3     1  UNL1        0.2308
     30 C           5.1591   -6.2820    0.0000 C.3     1  UNL1        0.0873
     31 C           7.7571   -4.7820    0.0000 C.3     1  UNL1        0.0796
     32 C           4.2740    7.2833    0.0000 C.3     1  UNL1        0.1120
     33 C           5.1420    7.7799    0.0000 C.3     1  UNL1        0.1152
     34 C           4.2702    6.2833    0.0000 C.3     1  UNL1        0.1140
     35 C           6.0061    7.2766    0.0000 C.3     1  UNL1        0.1454
     36 C           6.0022    6.2766    0.0000 C.3     1  UNL1        0.2310
     37 C           4.2930   -5.7820    0.0000 C.3     1  UNL1       -0.0361
     38 C           3.4022    5.7866    0.0000 C.3     1  UNL1        0.0731
     39 C           8.6232   -1.2820    0.0000 C.ar    1  UNL1        0.1310
     40 C           6.8624    4.7733    0.0000 C.ar    1  UNL1        0.1652
     41 C           8.6192   -0.2404    0.0000 C.ar    1  UNL1        0.0235
     42 C           7.7191   -1.7993    0.0000 C.ar    1  UNL1        0.0226
     43 C           7.7111    0.2700    0.0000 C.ar    1  UNL1        0.1462
     44 C           6.8432   -0.2267    0.0000 C.ar    1  UNL1        0.1055
     45 C           6.8231   -1.2681    0.0000 C.ar    1  UNL1        0.1347
     46 C           7.7265    4.2700    0.0000 C.ar    1  UNL1        0.1592
     47 C           5.9945    4.2766    0.0000 C.ar    1  UNL1       -0.0155
     48 C           6.8547    2.7733    0.0000 C.ar    1  UNL1        0.0211
     49 C           6.8509    1.7733    0.0000 C.ar    1  UNL1        0.1393
     50 C           7.7227    3.2700    0.0000 C.ar    1  UNL1       -0.0059
     51 C           5.9906    3.2766    0.0000 C.ar    1  UNL1       -0.0474
     52 C           5.9791    0.2767    0.0000 C.ar    1  UNL1        0.1966
     53 C           5.9829    1.2766    0.0000 C.ar    1  UNL1        0.0288
     54 H           8.0862   -3.9720    0.0000 H       1  UNL1        0.0647
     55 H          10.0261   -5.0920    0.0000 H       1  UNL1        0.0647
     56 H          10.8922   -3.9720    0.0000 H       1  UNL1        0.0648
     57 H          10.3552   -2.6620    0.0000 H       1  UNL1        0.0683
     58 H           6.8911   -7.9020    0.0000 H       1  UNL1        0.0671
     59 H           6.8911   -5.6620    0.0000 H       1  UNL1        0.0937
     60 H           5.4882   -8.0920    0.0000 H       1  UNL1        0.0648
     61 H           4.6221   -6.9720    0.0000 H       1  UNL1        0.0646
     62 H           8.9523   -2.4720    0.0000 H       1  UNL1        0.1084
     63 H           5.1591   -5.6620    0.0000 H       1  UNL1        0.0621
     64 H           7.5451   -4.1994    0.0000 H       1  UNL1        0.0587
     65 H           7.1466   -4.8897    0.0000 H       1  UNL1        0.0587
     66 H           4.2764    7.9033    0.0000 H       1  UNL1        0.0647
     67 H           5.6801    8.0879    0.0000 H       1  UNL1        0.0648
     68 H           4.2678    5.6633    0.0000 H       1  UNL1        0.0647
     69 H           6.5418    6.9645    0.0000 H       1  UNL1        0.0683
     70 H           5.9998    5.6566    0.0000 H       1  UNL1        0.1084
     71 H           4.6030   -5.2451    0.0000 H       1  UNL1        0.0255
     72 H           3.7561   -5.4720    0.0000 H       1  UNL1        0.0255
     73 H           3.9830   -6.3189    0.0000 H       1  UNL1        0.0255
     74 H          10.0261   -6.0920    0.0000 H       1  UNL1        0.2100
     75 H          11.7582   -4.4720    0.0000 H       1  UNL1        0.2100
     76 H          11.2212   -2.1620    0.0000 H       1  UNL1        0.2102
     77 H           8.2941   -7.4720    0.0000 H       1  UNL1        0.2101
     78 H           5.4882   -9.0920    0.0000 H       1  UNL1        0.2100
     79 H           3.7561   -7.4720    0.0000 H       1  UNL1        0.2100
     80 H           3.0019    5.3132    0.0000 H       1  UNL1        0.0584
     81 H           3.7989    5.3102    0.0000 H       1  UNL1        0.0584
     82 H           3.4123    8.4066    0.0000 H       1  UNL1        0.2100
     83 H           4.6101    9.0920    0.0000 H       1  UNL1        0.2100
     84 H           6.8764    8.3933    0.0000 H       1  UNL1        0.2102
     85 H           9.1537    0.0738    0.0000 H       1  UNL1        0.0691
     86 H           7.7143   -2.4193    0.0000 H       1  UNL1        0.0691
     87 H           2.0000    5.9820    0.0000 H       1  UNL1        0.2095
     88 H           5.4588    4.5887    0.0000 H       1  UNL1        0.0655
     89 H           8.2584    2.9579    0.0000 H       1  UNL1        0.0662
     90 H           5.4525    2.9687    0.0000 H       1  UNL1        0.0626
     91 H           5.4472    1.5887    0.0000 H       1  UNL1        0.0693
     92 H           5.9399   -2.3746    0.0000 H       1  UNL1        0.2922
     93 H           9.1302    4.4545    0.0000 H       1  UNL1        0.2923
@<TRIPOS>BOND
     1     1    21    1
     2     1    29    1
     3     2    26    1
     4     2    30    1
     5     3    26    1
     6     3    31    1
     7     4    22    1
     8     4    74    1
     9     5    23    1
    10     5    75    1
    11     6    29    1
    12     6    39    1
    13     7    34    1
    14     7    36    1
    15     8    24    1
    16     8    76    1
    17     9    25    1
    18     9    77    1
    19    10    27    1
    20    10    78    1
    21    11    28    1
    22    11    79    1
    23    12    32    1
    24    12    82    1
    25    13    33    1
    26    13    83    1
    27    14    36    1
    28    14    40    1
    29    15    35    1
    30    15    84    1
    31    16    38    1
    32    16    87    1
    33    17    43   ar
    34    17    49   ar
    35    18    45    1
    36    18    92    1
    37    19    46    1
    38    19    93    1
    39    20    52    2
    40    21    22    1
    41    21    31    1
    42    21    54    1
    43    22    23    1
    44    22    55    1
    45    23    24    1
    46    23    56    1
    47    24    29    1
    48    24    57    1
    49    25    26    1
    50    25    27    1
    51    25    58    1
    52    26    59    1
    53    27    28    1
    54    27    60    1
    55    28    30    1
    56    28    61    1
    57    29    62    1
    58    30    37    1
    59    30    63    1
    60    31    64    1
    61    31    65    1
    62    32    33    1
    63    32    34    1
    64    32    66    1
    65    33    35    1
    66    33    67    1
    67    34    38    1
    68    34    68    1
    69    35    36    1
    70    35    69    1
    71    36    70    1
    72    37    71    1
    73    37    72    1
    74    37    73    1
    75    38    80    1
    76    38    81    1
    77    39    41   ar
    78    39    42   ar
    79    40    46   ar
    80    40    47   ar
    81    41    43   ar
    82    41    85    1
    83    42    45   ar
    84    42    86    1
    85    43    44   ar
    86    44    45   ar
    87    44    52   ar
    88    46    50   ar
    89    47    51   ar
    90    47    88    1
    91    48    49    1
    92    48    50   ar
    93    48    51   ar
    94    49    53   ar
    95    50    89    1
    96    51    90    1
    97    52    53   ar
    98    53    91    1
