@<TRIPOS>MOLECULE
IMPHY009336
 55 58 0 0 0
SMALL
GASTEIGER

@<TRIPOS>ATOM
      1 O           7.7925   -2.0159    0.0000 O.3     1  UNL1       -0.4607
      2 O           4.3198    1.0156    0.0000 O.2     1  UNL1       -0.2940
      3 O           2.5381    0.0052    0.0000 O.3     1  UNL1       -0.3843
      4 O           5.1804    1.5125    0.0000 O.2     1  UNL1       -0.2885
      5 O           6.9464    2.5503    0.0000 O.2     1  UNL1       -0.4917
      6 O           9.5140   -2.0487    0.0000 O.2     1  UNL1       -0.2508
      7 C           6.9343   -0.5190    0.0000 C.3     1  UNL1        0.0229
      8 C           5.2022   -0.5190    0.0000 C.3     1  UNL1        0.0425
      9 C           6.0682   -0.0190    0.0000 C.3     1  UNL1        0.0469
     10 C           5.2022   -1.5190    0.0000 C.3     1  UNL1       -0.0221
     11 C           6.9343   -1.5190    0.0000 C.3     1  UNL1        0.1099
     12 C           6.0682   -2.0190    0.0000 C.3     1  UNL1       -0.0111
     13 C           7.8443   -0.0122    0.0000 C.3     1  UNL1        0.0032
     14 C           4.3083   -2.0537    0.0000 C.3     1  UNL1       -0.0373
     15 C           4.3083    0.0157    0.0000 C.2     1  UNL1        0.1683
     16 C           6.9343    0.4810    0.0000 C.3     1  UNL1       -0.0549
     17 C           6.0522    1.0225    0.0000 C.2     1  UNL1        0.2019
     18 C           5.2022    0.4810    0.0000 C.3     1  UNL1       -0.0518
     19 C           3.4022   -1.5398    0.0000 C.3     1  UNL1       -0.0170
     20 C           3.4022   -0.4982    0.0000 C.3     1  UNL1        0.1138
     21 C           8.6836   -0.5404    0.0000 C.3     1  UNL1        0.0522
     22 C           7.8523    1.0294    0.0000 C.2     1  UNL1       -0.0233
     23 C           6.9502    1.5503    0.0000 C.2     1  UNL1        0.1619
     24 C           4.3198   -3.0536    0.0000 C.3     1  UNL1       -0.0620
     25 C           8.6580   -1.5318    0.0000 C.2     1  UNL1        0.3079
     26 C           8.7202    1.5261    0.0000 C.3     1  UNL1       -0.0396
     27 C           7.8105    3.0536    0.0000 C.3     1  UNL1        0.0789
     28 H           5.3289    0.4003    0.0000 H       1  UNL1        0.0398
     29 H           5.2088   -2.3690    0.0000 H       1  UNL1        0.0314
     30 H           6.9337   -2.3690    0.0000 H       1  UNL1        0.0740
     31 H           5.6697   -2.4939    0.0000 H       1  UNL1        0.0304
     32 H           6.4668   -2.4939    0.0000 H       1  UNL1        0.0304
     33 H           8.5900    0.3959    0.0000 H       1  UNL1        0.0359
     34 H           3.7744   -2.3688    0.0000 H       1  UNL1        0.0302
     35 H           7.5543    0.4810    0.0000 H       1  UNL1        0.0237
     36 H           6.9343    1.1010    0.0000 H       1  UNL1        0.0237
     37 H           6.3143    0.4810    0.0000 H       1  UNL1        0.0237
     38 H           5.8222    0.4810    0.0000 H       1  UNL1        0.0239
     39 H           5.2022    1.1010    0.0000 H       1  UNL1        0.0239
     40 H           4.5822    0.4810    0.0000 H       1  UNL1        0.0239
     41 H           2.7914   -1.4337    0.0000 H       1  UNL1        0.0297
     42 H           3.1932   -2.1235    0.0000 H       1  UNL1        0.0297
     43 H           2.8647   -0.8071    0.0000 H       1  UNL1        0.0673
     44 H           9.2907   -0.6663    0.0000 H       1  UNL1        0.0384
     45 H           8.9154    0.0347    0.0000 H       1  UNL1        0.0384
     46 H           3.6999   -3.0608    0.0000 H       1  UNL1        0.0233
     47 H           4.3270   -3.6736    0.0000 H       1  UNL1        0.0233
     48 H           4.9398   -3.0464    0.0000 H       1  UNL1        0.0233
     49 H           9.0282    0.9880    0.0000 H       1  UNL1        0.0276
     50 H           9.2584    1.8340    0.0000 H       1  UNL1        0.0276
     51 H           8.4123    2.0642    0.0000 H       1  UNL1        0.0276
     52 H           2.0000   -0.3028    0.0000 H       1  UNL1        0.2104
     53 H           8.1225    2.5178    0.0000 H       1  UNL1        0.0660
     54 H           8.3462    3.3657    0.0000 H       1  UNL1        0.0660
     55 H           7.4984    3.5893    0.0000 H       1  UNL1        0.0660
@<TRIPOS>BOND
     1     1    11    1
     2     1    25    1
     3     2    15    2
     4    20     3    1
     5     3    52    1
     6     4    17    2
     7     5    23    1
     8     5    27    1
     9     6    25    2
    10     7     9    1
    11     7    11    1
    12     7    13    1
    13     7    16    1
    14     8     9    1
    15     8    10    1
    16     8    15    1
    17     8    18    1
    18     9    17    1
    19     9    28    1
    20    10    12    1
    21    10    14    1
    22    10    29    1
    23    11    12    1
    24    11    30    1
    25    12    31    1
    26    12    32    1
    27    13    21    1
    28    13    22    1
    29    13    33    1
    30    14    19    1
    31    14    24    1
    32    14    34    1
    33    15    20    1
    34    16    35    1
    35    16    36    1
    36    16    37    1
    37    17    23    1
    38    18    38    1
    39    18    39    1
    40    18    40    1
    41    19    20    1
    42    19    41    1
    43    19    42    1
    44    20    43    1
    45    21    25    1
    46    21    44    1
    47    21    45    1
    48    22    23    2
    49    22    26    1
    50    24    46    1
    51    24    47    1
    52    24    48    1
    53    26    49    1
    54    26    50    1
    55    26    51    1
    56    27    53    1
    57    27    54    1
    58    27    55    1
