@<TRIPOS>MOLECULE
IMPHY008337
 97 103 0 0 0
SMALL
GASTEIGER

@<TRIPOS>ATOM
      1 O           7.7289   -1.9483    0.0000 O.3     1  UNL1       -0.3474
      2 O           6.0589    2.1117    0.0000 O.3     1  UNL1       -0.4549
      3 O           4.2576    1.1365    0.0000 O.3     1  UNL1       -0.3758
      4 O           6.8671   -3.4388    0.0000 O.3     1  UNL1       -0.3201
      5 O           6.9291    2.5915    0.0000 O.2     1  UNL1       -0.2940
      6 O           8.7151    3.5943    0.0000 O.3     1  UNL1       -0.3723
      7 O           5.1350   -3.4388    0.0000 O.3     1  UNL1       -0.3404
      8 O           4.3277    2.1658    0.0000 O.2     1  UNL1       -0.2449
      9 O           6.8671   -5.4388    0.0000 O.3     1  UNL1       -0.3841
     10 O           5.1350   -6.4388    0.0000 O.3     1  UNL1       -0.3864
     11 O           3.4030   -5.4388    0.0000 O.3     1  UNL1       -0.3865
     12 O           2.5369   -3.9388    0.0000 O.3     1  UNL1       -0.3924
     13 O           3.7056    5.8542    0.0000 O.3     1  UNL1       -0.4526
     14 O           5.1240    6.6149    0.0000 O.3     1  UNL1       -0.4526
     15 C           6.8912   -0.4398    0.0000 C.3     1  UNL1        0.0047
     16 C           6.9109    0.5600    0.0000 C.3     1  UNL1        0.0191
     17 C           7.7866    1.0429    0.0000 C.3     1  UNL1        0.0385
     18 C           5.9869   -0.9567    0.0000 C.3     1  UNL1       -0.0233
     19 C           7.7472   -0.9567    0.0000 C.3     1  UNL1        0.0680
     20 C           8.6426    0.5259    0.0000 C.3     1  UNL1       -0.0260
     21 C           6.0277    1.1122    0.0000 C.3     1  UNL1        0.1339
     22 C           5.0911   -0.4251    0.0000 C.3     1  UNL1       -0.0105
     23 C           8.6229   -0.4739    0.0000 C.3     1  UNL1       -0.0222
     24 C           5.1116    0.6163    0.0000 C.3     1  UNL1        0.0983
     25 C           6.0052   -1.9483    0.0000 C.3     1  UNL1        0.0023
     26 C           6.0352    0.0772    0.0000 C.3     1  UNL1       -0.0565
     27 C           9.5624    1.0148    0.0000 C.3     1  UNL1       -0.0465
     28 C           7.7910    2.0845    0.0000 C.2     1  UNL1        0.1683
     29 C           6.9306    1.5598    0.0000 C.3     1  UNL1       -0.0521
     30 C           6.8671   -2.4388    0.0000 C.3     1  UNL1        0.1629
     31 C           8.6993    2.5945    0.0000 C.3     1  UNL1        0.1166
     32 C           9.5910    2.0560    0.0000 C.3     1  UNL1       -0.0194
     33 C           4.2173   -0.9114    0.0000 C.3     1  UNL1       -0.0597
     34 C           5.2089    2.6385    0.0000 C.2     1  UNL1        0.3397
     35 C           3.3801    0.6571    0.0000 C.3     1  UNL1        0.0370
     36 C           6.0010   -3.9388    0.0000 C.3     1  UNL1        0.1908
     37 C           9.5890    4.0806    0.0000 C.3     1  UNL1        0.0374
     38 C           6.0010   -4.9388    0.0000 C.3     1  UNL1        0.1342
     39 C           5.2402    3.6380    0.0000 C.ar    1  UNL1        0.0627
     40 C           5.1350   -5.4388    0.0000 C.3     1  UNL1        0.1141
     41 C           4.2690   -3.9388    0.0000 C.3     1  UNL1        0.1130
     42 C           4.2690   -4.9388    0.0000 C.3     1  UNL1        0.1119
     43 C           4.3902    4.1649    0.0000 C.ar    1  UNL1       -0.0022
     44 C           6.1214    4.1107    0.0000 C.ar    1  UNL1       -0.0441
     45 C           3.4030   -3.4388    0.0000 C.3     1  UNL1        0.0730
     46 C           4.4214    5.1644    0.0000 C.ar    1  UNL1        0.1670
     47 C           6.1527    5.1102    0.0000 C.ar    1  UNL1       -0.0154
     48 C           5.3027    5.6370    0.0000 C.ar    1  UNL1        0.1663
     49 C           4.1389    6.7488    0.0000 C.3     1  UNL1        0.2332
     50 H           7.6385    0.1206    0.0000 H       1  UNL1        0.0353
     51 H           5.2522   -1.3841    0.0000 H       1  UNL1        0.0312
     52 H           8.4751   -1.3957    0.0000 H       1  UNL1        0.0603
     53 H           9.3668    0.0809    0.0000 H       1  UNL1        0.0311
     54 H           6.5746    1.4042    0.0000 H       1  UNL1        0.0763
     55 H           5.0825   -1.0451    0.0000 H       1  UNL1        0.0327
     56 H           8.8235   -1.0606    0.0000 H       1  UNL1        0.0293
     57 H           9.2355   -0.3783    0.0000 H       1  UNL1        0.0293
     58 H           5.1274    1.2361    0.0000 H       1  UNL1        0.0636
     59 H           5.3931   -1.8494    0.0000 H       1  UNL1        0.0317
     60 H           5.7991   -2.5330    0.0000 H       1  UNL1        0.0317
     61 H           6.3557    0.6079    0.0000 H       1  UNL1        0.0236
     62 H           5.5045    0.3977    0.0000 H       1  UNL1        0.0236
     63 H           5.7147   -0.4536    0.0000 H       1  UNL1        0.0236
     64 H           9.7554    0.4256    0.0000 H       1  UNL1        0.0269
     65 H          10.1759    1.1041    0.0000 H       1  UNL1        0.0269
     66 H           7.2511    2.0906    0.0000 H       1  UNL1        0.0239
     67 H           6.3999    1.8804    0.0000 H       1  UNL1        0.0239
     68 H           6.6101    1.0291    0.0000 H       1  UNL1        0.0239
     69 H           6.3311   -2.7505    0.0000 H       1  UNL1        0.0911
     70 H           9.2417    2.8949    0.0000 H       1  UNL1        0.0675
     71 H          10.1987    1.9332    0.0000 H       1  UNL1        0.0294
     72 H           9.8159    2.6337    0.0000 H       1  UNL1        0.0294
     73 H           3.9158   -0.3696    0.0000 H       1  UNL1        0.0233
     74 H           3.6755   -1.2128    0.0000 H       1  UNL1        0.0233
     75 H           4.5188   -1.4532    0.0000 H       1  UNL1        0.0233
     76 H           3.0828    1.2012    0.0000 H       1  UNL1        0.0524
     77 H           2.8360    0.3598    0.0000 H       1  UNL1        0.0524
     78 H           3.6774    0.1130    0.0000 H       1  UNL1        0.0524
     79 H           6.0010   -3.3188    0.0000 H       1  UNL1        0.0938
     80 H           9.8904    3.5388    0.0000 H       1  UNL1        0.0524
     81 H          10.1308    4.3820    0.0000 H       1  UNL1        0.0524
     82 H           9.2875    4.6223    0.0000 H       1  UNL1        0.0524
     83 H           6.0010   -5.5588    0.0000 H       1  UNL1        0.0671
     84 H           4.5981   -5.7488    0.0000 H       1  UNL1        0.0648
     85 H           4.2690   -3.3188    0.0000 H       1  UNL1        0.0647
     86 H           3.7320   -4.6288    0.0000 H       1  UNL1        0.0647
     87 H           3.8438    3.8718    0.0000 H       1  UNL1        0.0663
     88 H           6.6484    3.7841    0.0000 H       1  UNL1        0.0627
     89 H           6.8671   -6.0588    0.0000 H       1  UNL1        0.2101
     90 H           3.8015   -2.9639    0.0000 H       1  UNL1        0.0584
     91 H           3.0044   -2.9639    0.0000 H       1  UNL1        0.0584
     92 H           4.5981   -6.7488    0.0000 H       1  UNL1        0.2100
     93 H           6.6990    5.4033    0.0000 H       1  UNL1        0.0655
     94 H           3.4030   -6.0588    0.0000 H       1  UNL1        0.2100
     95 H           2.0000   -3.6288    0.0000 H       1  UNL1        0.2095
     96 H           4.2866    7.3510    0.0000 H       1  UNL1        0.1166
     97 H           3.5556    6.9589    0.0000 H       1  UNL1        0.1166
@<TRIPOS>BOND
     1     1    19    1
     2     1    30    1
     3    21     2    1
     4     2    34    1
     5    24     3    1
     6     3    35    1
     7    30     4    1
     8    36     4    1
     9     5    28    2
    10    31     6    1
    11     6    37    1
    12     7    36    1
    13     7    41    1
    14     8    34    2
    15    38     9    1
    16     9    89    1
    17    40    10    1
    18    10    92    1
    19    42    11    1
    20    11    94    1
    21    12    45    1
    22    12    95    1
    23    13    46    1
    24    13    49    1
    25    14    48    1
    26    14    49    1
    27    15    16    1
    28    15    18    1
    29    15    19    1
    30    15    26    1
    31    16    17    1
    32    16    21    1
    33    16    50    1
    34    17    20    1
    35    17    28    1
    36    17    29    1
    37    18    22    1
    38    18    25    1
    39    18    51    1
    40    19    23    1
    41    19    52    1
    42    20    23    1
    43    20    27    1
    44    20    53    1
    45    21    24    1
    46    21    54    1
    47    22    24    1
    48    22    33    1
    49    22    55    1
    50    23    56    1
    51    23    57    1
    52    24    58    1
    53    25    30    1
    54    25    59    1
    55    25    60    1
    56    26    61    1
    57    26    62    1
    58    26    63    1
    59    27    32    1
    60    27    64    1
    61    27    65    1
    62    28    31    1
    63    29    66    1
    64    29    67    1
    65    29    68    1
    66    30    69    1
    67    31    32    1
    68    31    70    1
    69    32    71    1
    70    32    72    1
    71    33    73    1
    72    33    74    1
    73    33    75    1
    74    34    39    1
    75    35    76    1
    76    35    77    1
    77    35    78    1
    78    36    38    1
    79    36    79    1
    80    37    80    1
    81    37    81    1
    82    37    82    1
    83    38    40    1
    84    38    83    1
    85    39    43   ar
    86    39    44   ar
    87    40    42    1
    88    40    84    1
    89    41    42    1
    90    41    45    1
    91    41    85    1
    92    42    86    1
    93    43    46   ar
    94    43    87    1
    95    44    47   ar
    96    44    88    1
    97    45    90    1
    98    45    91    1
    99    46    48   ar
   100    47    48   ar
   101    47    93    1
   102    49    96    1
   103    49    97    1
