@<TRIPOS>MOLECULE
IMPHY014118
 36 37 0 0 0
SMALL
GASTEIGER

@<TRIPOS>ATOM
      1 O           4.6802    0.1256    0.0000 O.3     1  UNL1       -0.4561
      2 O           8.1756    0.3270    0.0000 O.3     1  UNL1       -0.3907
      3 O           3.0329   -0.4097    0.0000 O.2     1  UNL1       -0.2453
      4 N           5.9402   -2.1345    0.0000 N.3     1  UNL1       -0.2887
      5 C           5.9402   -1.1345    0.0000 C.3     1  UNL1        0.0713
      6 C           4.9892   -0.8255    0.0000 C.3     1  UNL1        0.1238
      7 C           4.4014   -1.6345    0.0000 C.3     1  UNL1       -0.0010
      8 C           4.9892   -2.4435    0.0000 C.3     1  UNL1        0.0033
      9 C           6.8865   -0.8298    0.0000 C.2     1  UNL1       -0.0266
     10 C           6.8865   -2.4392    0.0000 C.3     1  UNL1        0.0182
     11 C           7.4701   -1.6345    0.0000 C.2     1  UNL1       -0.0671
     12 C           7.1971    0.1208    0.0000 C.3     1  UNL1        0.0669
     13 C           3.7020    0.3335    0.0000 C.2     1  UNL1        0.3349
     14 C           3.3930    1.2846    0.0000 C.2     1  UNL1        0.0293
     15 C           4.0621    2.0277    0.0000 C.3     1  UNL1       -0.0333
     16 C           2.4149    1.4925    0.0000 C.2     1  UNL1       -0.0774
     17 C           2.1058    2.4435    0.0000 C.3     1  UNL1       -0.0461
     18 H           5.9410   -0.5145    0.0000 H       1  UNL1        0.0547
     19 H           4.3768   -0.7285    0.0000 H       1  UNL1        0.0753
     20 H           3.9406   -1.2196    0.0000 H       1  UNL1        0.0314
     21 H           3.9406   -2.0494    0.0000 H       1  UNL1        0.0314
     22 H           4.4522   -2.7535    0.0000 H       1  UNL1        0.0428
     23 H           5.2414   -3.0099    0.0000 H       1  UNL1        0.0428
     24 H           6.6354   -3.0061    0.0000 H       1  UNL1        0.0470
     25 H           7.4238   -2.7484    0.0000 H       1  UNL1        0.0470
     26 H           8.0901   -1.6345    0.0000 H       1  UNL1        0.0586
     27 H           7.1766    0.7404    0.0000 H       1  UNL1        0.0604
     28 H           6.5833    0.2081    0.0000 H       1  UNL1        0.0604
     29 H           8.3682    0.9163    0.0000 H       1  UNL1        0.2098
     30 H           4.5229    1.6128    0.0000 H       1  UNL1        0.0280
     31 H           4.4770    2.4884    0.0000 H       1  UNL1        0.0280
     32 H           3.6014    2.4426    0.0000 H       1  UNL1        0.0280
     33 H           2.0000    1.0317    0.0000 H       1  UNL1        0.0574
     34 H           2.6955    2.6351    0.0000 H       1  UNL1        0.0272
     35 H           1.9142    3.0332    0.0000 H       1  UNL1        0.0272
     36 H           1.5162    2.2519    0.0000 H       1  UNL1        0.0272
@<TRIPOS>BOND
     1     6     1    1
     2     1    13    1
     3     2    12    1
     4     2    29    1
     5     3    13    2
     6     4     5    1
     7     4     8    1
     8     4    10    1
     9     5     6    1
    10     5     9    1
    11     5    18    1
    12     6     7    1
    13     6    19    1
    14     7     8    1
    15     7    20    1
    16     7    21    1
    17     8    22    1
    18     8    23    1
    19     9    11    2
    20     9    12    1
    21    10    11    1
    22    10    24    1
    23    10    25    1
    24    11    26    1
    25    12    27    1
    26    12    28    1
    27    13    14    1
    28    14    15    1
    29    14    16    2
    30    15    30    1
    31    15    31    1
    32    15    32    1
    33    16    17    1
    34    16    33    1
    35    17    34    1
    36    17    35    1
    37    17    36    1
