@<TRIPOS>MOLECULE
IMPHY005979
 99 102 0 0 0
SMALL
GASTEIGER

@<TRIPOS>ATOM
      1 O           6.0812   -3.8358    0.0000 O.3     1  UNL1       -0.3577
      2 O          18.7484    3.8358    0.0000 O.3     1  UNL1       -0.3578
      3 O           2.5369   -4.0311    0.0000 O.3     1  UNL1       -0.3917
      4 C           5.1350   -3.5311    0.0000 C.3     1  UNL1        0.0918
      5 C           4.2690   -2.0311    0.0000 C.3     1  UNL1       -0.0088
      6 C           5.1350   -2.5311    0.0000 C.2     1  UNL1       -0.0338
      7 C          19.6947    3.5311    0.0000 C.3     1  UNL1        0.0894
      8 C          20.5607    2.0311    0.0000 C.3     1  UNL1       -0.0111
      9 C           4.2690   -4.0311    0.0000 C.3     1  UNL1        0.0061
     10 C           3.4030   -2.5311    0.0000 C.3     1  UNL1       -0.0178
     11 C          19.6947    2.5311    0.0000 C.2     1  UNL1       -0.0340
     12 C           3.4030   -3.5311    0.0000 C.3     1  UNL1        0.0589
     13 C          20.5607    4.0311    0.0000 C.3     1  UNL1       -0.0200
     14 C          21.4267    2.5311    0.0000 C.3     1  UNL1       -0.0440
     15 C          21.4267    3.5311    0.0000 C.3     1  UNL1       -0.0494
     16 C           6.0812   -2.2264    0.0000 C.2     1  UNL1       -0.0491
     17 C           6.6648   -3.0311    0.0000 C.3     1  UNL1        0.0994
     18 C           5.1350   -4.5311    0.0000 C.3     1  UNL1       -0.0318
     19 C           3.7690   -1.1651    0.0000 C.3     1  UNL1       -0.0559
     20 C           4.7690   -1.1651    0.0000 C.3     1  UNL1       -0.0559
     21 C          18.7484    2.2264    0.0000 C.2     1  UNL1       -0.0491
     22 C          18.1648    3.0311    0.0000 C.3     1  UNL1        0.0994
     23 C          19.6947    4.5311    0.0000 C.3     1  UNL1       -0.0319
     24 C          21.0607    1.1651    0.0000 C.3     1  UNL1       -0.0560
     25 C          20.0607    1.1651    0.0000 C.3     1  UNL1       -0.0560
     26 C           7.6648   -3.0311    0.0000 C.2     1  UNL1       -0.0404
     27 C          17.1648    3.0311    0.0000 C.2     1  UNL1       -0.0404
     28 C           8.1648   -3.8971    0.0000 C.3     1  UNL1       -0.0408
     29 C          16.6648    3.8971    0.0000 C.3     1  UNL1       -0.0408
     30 C           8.1648   -2.1651    0.0000 C.2     1  UNL1       -0.0600
     31 C          16.6648    2.1651    0.0000 C.2     1  UNL1       -0.0600
     32 C           9.1648   -2.1651    0.0000 C.2     1  UNL1       -0.0615
     33 C          15.6648    2.1651    0.0000 C.2     1  UNL1       -0.0615
     34 C           9.6648   -1.2990    0.0000 C.2     1  UNL1       -0.0588
     35 C          15.1648    1.2990    0.0000 C.2     1  UNL1       -0.0588
     36 C          10.6648   -1.2990    0.0000 C.2     1  UNL1       -0.0504
     37 C          14.1648    1.2990    0.0000 C.2     1  UNL1       -0.0504
     38 C          11.1648   -2.1651    0.0000 C.3     1  UNL1       -0.0397
     39 C          11.1648   -0.4330    0.0000 C.2     1  UNL1       -0.0588
     40 C          13.6648    2.1651    0.0000 C.3     1  UNL1       -0.0397
     41 C          13.6648    0.4330    0.0000 C.2     1  UNL1       -0.0588
     42 C          12.1648   -0.4330    0.0000 C.2     1  UNL1       -0.0615
     43 C          12.6648    0.4330    0.0000 C.2     1  UNL1       -0.0615
     44 H           3.8705   -4.5060    0.0000 H       1  UNL1        0.0321
     45 H           4.6675   -4.5060    0.0000 H       1  UNL1        0.0321
     46 H           3.1909   -1.9485    0.0000 H       1  UNL1        0.0298
     47 H           2.7924   -2.6388    0.0000 H       1  UNL1        0.0298
     48 H           3.4030   -4.1511    0.0000 H       1  UNL1        0.0594
     49 H          20.9592    4.5060    0.0000 H       1  UNL1        0.0296
     50 H          20.1622    4.5060    0.0000 H       1  UNL1        0.0296
     51 H          21.6388    1.9485    0.0000 H       1  UNL1        0.0274
     52 H          22.0373    2.6388    0.0000 H       1  UNL1        0.0274
     53 H          22.0373    3.4234    0.0000 H       1  UNL1        0.0267
     54 H          21.6388    4.1137    0.0000 H       1  UNL1        0.0267
     55 H           6.2738   -1.6370    0.0000 H       1  UNL1        0.0601
     56 H           6.9466   -3.5834    0.0000 H       1  UNL1        0.0688
     57 H           4.5150   -4.5311    0.0000 H       1  UNL1        0.0261
     58 H           5.1350   -5.1511    0.0000 H       1  UNL1        0.0261
     59 H           5.7550   -4.5311    0.0000 H       1  UNL1        0.0261
     60 H           4.3059   -0.8551    0.0000 H       1  UNL1        0.0238
     61 H           3.4590   -0.6281    0.0000 H       1  UNL1        0.0238
     62 H           3.2320   -1.4751    0.0000 H       1  UNL1        0.0238
     63 H           5.3059   -1.4751    0.0000 H       1  UNL1        0.0238
     64 H           5.0790   -0.6281    0.0000 H       1  UNL1        0.0238
     65 H           4.2320   -0.8551    0.0000 H       1  UNL1        0.0238
     66 H          18.5558    1.6370    0.0000 H       1  UNL1        0.0601
     67 H          17.8831    3.5834    0.0000 H       1  UNL1        0.0688
     68 H          20.3147    4.5311    0.0000 H       1  UNL1        0.0261
     69 H          19.6947    5.1511    0.0000 H       1  UNL1        0.0261
     70 H          19.0747    4.5311    0.0000 H       1  UNL1        0.0261
     71 H          19.5238    1.4751    0.0000 H       1  UNL1        0.0238
     72 H          19.7507    0.6281    0.0000 H       1  UNL1        0.0238
     73 H          20.5976    0.8551    0.0000 H       1  UNL1        0.0238
     74 H          20.5238    0.8551    0.0000 H       1  UNL1        0.0238
     75 H          21.3707    0.6281    0.0000 H       1  UNL1        0.0238
     76 H          21.5976    1.4751    0.0000 H       1  UNL1        0.0238
     77 H           2.0000   -3.7211    0.0000 H       1  UNL1        0.2098
     78 H           7.6279   -4.2071    0.0000 H       1  UNL1        0.0275
     79 H           8.4748   -4.4340    0.0000 H       1  UNL1        0.0275
     80 H           8.7018   -3.5871    0.0000 H       1  UNL1        0.0275
     81 H          17.2018    4.2071    0.0000 H       1  UNL1        0.0275
     82 H          16.3548    4.4340    0.0000 H       1  UNL1        0.0275
     83 H          16.1279    3.5871    0.0000 H       1  UNL1        0.0275
     84 H           7.8548   -1.6281    0.0000 H       1  UNL1        0.0618
     85 H          16.9748    1.6281    0.0000 H       1  UNL1        0.0618
     86 H           9.4748   -2.7020    0.0000 H       1  UNL1        0.0618
     87 H          15.3548    2.7020    0.0000 H       1  UNL1        0.0618
     88 H           9.3548   -0.7621    0.0000 H       1  UNL1        0.0620
     89 H          15.4748    0.7621    0.0000 H       1  UNL1        0.0620
     90 H          10.6279   -2.4751    0.0000 H       1  UNL1        0.0278
     91 H          11.4748   -2.7020    0.0000 H       1  UNL1        0.0278
     92 H          11.7018   -1.8551    0.0000 H       1  UNL1        0.0278
     93 H          10.8548    0.1039    0.0000 H       1  UNL1        0.0620
     94 H          14.2018    2.4751    0.0000 H       1  UNL1        0.0278
     95 H          13.3548    2.7020    0.0000 H       1  UNL1        0.0278
     96 H          13.1279    1.8551    0.0000 H       1  UNL1        0.0278
     97 H          13.9748   -0.1039    0.0000 H       1  UNL1        0.0620
     98 H          12.4748   -0.9699    0.0000 H       1  UNL1        0.0618
     99 H          12.3548    0.9699    0.0000 H       1  UNL1        0.0618
@<TRIPOS>BOND
     1     1     4    1
     2     1    17    1
     3     2     7    1
     4     2    22    1
     5     3    12    1
     6     3    77    1
     7     4     6    1
     8     4     9    1
     9     4    18    1
    10     5     6    1
    11     5    10    1
    12     5    19    1
    13     5    20    1
    14     6    16    2
    15     7    11    1
    16     7    13    1
    17     7    23    1
    18     8    11    1
    19     8    14    1
    20     8    24    1
    21     8    25    1
    22     9    12    1
    23     9    44    1
    24     9    45    1
    25    10    12    1
    26    10    46    1
    27    10    47    1
    28    11    21    2
    29    12    48    1
    30    13    15    1
    31    13    49    1
    32    13    50    1
    33    14    15    1
    34    14    51    1
    35    14    52    1
    36    15    53    1
    37    15    54    1
    38    16    17    1
    39    16    55    1
    40    17    26    1
    41    17    56    1
    42    18    57    1
    43    18    58    1
    44    18    59    1
    45    19    60    1
    46    19    61    1
    47    19    62    1
    48    20    63    1
    49    20    64    1
    50    20    65    1
    51    21    22    1
    52    21    66    1
    53    22    27    1
    54    22    67    1
    55    23    68    1
    56    23    69    1
    57    23    70    1
    58    24    74    1
    59    24    75    1
    60    24    76    1
    61    25    71    1
    62    25    72    1
    63    25    73    1
    64    26    28    1
    65    26    30    2
    66    27    29    1
    67    27    31    2
    68    28    78    1
    69    28    79    1
    70    28    80    1
    71    29    81    1
    72    29    82    1
    73    29    83    1
    74    30    32    1
    75    30    84    1
    76    31    33    1
    77    31    85    1
    78    32    34    2
    79    32    86    1
    80    33    35    2
    81    33    87    1
    82    34    36    1
    83    34    88    1
    84    35    37    1
    85    35    89    1
    86    36    38    1
    87    36    39    2
    88    37    40    1
    89    37    41    2
    90    38    90    1
    91    38    91    1
    92    38    92    1
    93    39    42    1
    94    39    93    1
    95    40    94    1
    96    40    95    1
    97    40    96    1
    98    41    43    1
    99    41    97    1
   100    42    43    2
   101    42    98    1
   102    43    99    1
