@<TRIPOS>MOLECULE
IMPHY014205
 35 37 0 0 0
SMALL
GASTEIGER

@<TRIPOS>ATOM
      1 O           2.8641    0.5004    0.0000 O.3     1  UNL1       -0.3689
      2 O           5.5301    1.9796    0.0000 O.3     1  UNL1       -0.5057
      3 O           5.5301   -2.0204    0.0000 O.3     1  UNL1       -0.5057
      4 O           7.2785    2.0142    0.0000 O.2     1  UNL1       -0.5059
      5 O           7.2785   -2.0550    0.0000 O.2     1  UNL1       -0.2831
      6 O           9.0602   -1.0445    0.0000 O.2     1  UNL1       -0.2837
      7 C           4.6641   -0.5204    0.0000 C.ar    1  UNL1        0.0063
      8 C           4.6641    0.4796    0.0000 C.ar    1  UNL1        0.0297
      9 C           3.7702   -1.0550    0.0000 C.3     1  UNL1        0.0024
     10 C           3.7702    1.0143    0.0000 C.3     1  UNL1        0.0849
     11 C           2.8641   -0.5412    0.0000 C.3     1  UNL1        0.0607
     12 C           5.5301    0.9796    0.0000 C.ar    1  UNL1        0.1343
     13 C           5.5301   -1.0204    0.0000 C.ar    1  UNL1        0.1323
     14 C           6.3961    0.4796    0.0000 C.ar    1  UNL1        0.0727
     15 C           6.3961   -0.5204    0.0000 C.ar    1  UNL1        0.0813
     16 C           3.7817    2.0142    0.0000 C.3     1  UNL1       -0.0344
     17 C           2.0000   -1.0445    0.0000 C.3     1  UNL1       -0.0384
     18 C           7.2901    1.0143    0.0000 C.2     1  UNL1        0.1320
     19 C           7.2901   -1.0550    0.0000 C.2     1  UNL1        0.2367
     20 C           8.1962    0.5004    0.0000 C.2     1  UNL1        0.0312
     21 C           8.1962   -0.5412    0.0000 C.2     1  UNL1        0.2295
     22 H           3.3765   -1.5341    0.0000 H       1  UNL1        0.0339
     23 H           4.1748   -1.5248    0.0000 H       1  UNL1        0.0339
     24 H           3.2362    1.3294    0.0000 H       1  UNL1        0.0645
     25 H           2.3266   -0.2322    0.0000 H       1  UNL1        0.0597
     26 H           4.4017    2.0070    0.0000 H       1  UNL1        0.0258
     27 H           3.7889    2.6342    0.0000 H       1  UNL1        0.0258
     28 H           3.1618    2.0214    0.0000 H       1  UNL1        0.0258
     29 H           1.6879   -0.5088    0.0000 H       1  UNL1        0.0255
     30 H           1.4643   -1.3566    0.0000 H       1  UNL1        0.0255
     31 H           2.3121   -1.5803    0.0000 H       1  UNL1        0.0255
     32 H           8.7319    0.8125    0.0000 H       1  UNL1        0.0694
     33 H           4.9932    2.2896    0.0000 H       1  UNL1        0.2922
     34 H           4.9932   -2.3304    0.0000 H       1  UNL1        0.2922
     35 H           7.8118    2.3304    0.0000 H       1  UNL1        0.2922
@<TRIPOS>BOND
     1     1    10    1
     2     1    11    1
     3     2    12    1
     4     2    33    1
     5     3    13    1
     6     3    34    1
     7     4    18    1
     8     4    35    1
     9     5    19    2
    10     6    21    2
    11     7     8   ar
    12     7     9    1
    13     7    13   ar
    14     8    10    1
    15     8    12   ar
    16     9    11    1
    17     9    22    1
    18     9    23    1
    19    10    16    1
    20    10    24    1
    21    11    17    1
    22    11    25    1
    23    12    14   ar
    24    13    15   ar
    25    14    15   ar
    26    14    18    1
    27    15    19    1
    28    16    26    1
    29    16    27    1
    30    16    28    1
    31    17    29    1
    32    17    30    1
    33    17    31    1
    34    18    20    2
    35    19    21    1
    36    20    21    1
    37    20    32    1
