@<TRIPOS>MOLECULE
IMPHY010946
 30 30 0 0 0
SMALL
GASTEIGER

@<TRIPOS>ATOM
      1 S           8.1654   -0.7088    0.0000 S.2     1  UNL1       -0.0131
      2 O           3.3669    1.6076    0.0000 O.co2   1  UNL1       -0.5442
      3 O           5.0611    1.2475    0.0000 O.co2   1  UNL1       -0.5442
      4 N           2.9511   -0.3487    0.0000 N.4     1  UNL1        0.2434
      5 N           6.4053   -0.9876    0.0000 N.ar    1  UNL1       -0.3374
      6 N           6.9053    0.5513    0.0000 N.ar    1  UNL1       -0.3401
      7 C           3.9021   -0.0397    0.0000 C.3     1  UNL1        0.0260
      8 C           4.6453   -0.7088    0.0000 C.3     1  UNL1        0.0376
      9 C           2.0000   -0.6577    0.0000 C.3     1  UNL1       -0.0412
     10 C           2.6420    0.6024    0.0000 C.3     1  UNL1       -0.0412
     11 C           3.2601   -1.2998    0.0000 C.3     1  UNL1       -0.0412
     12 C           5.5963   -0.3998    0.0000 C.ar    1  UNL1        0.0397
     13 C           4.1100    0.9385    0.0000 C.2     1  UNL1        0.0899
     14 C           5.9053    0.5513    0.0000 C.ar    1  UNL1        0.0233
     15 C           7.2144   -0.3998    0.0000 C.ar    1  UNL1        0.1555
     16 H           3.4414    0.3752    0.0000 H       1  UNL1        0.0920
     17 H           4.1567   -1.0905    0.0000 H       1  UNL1        0.0387
     18 H           4.9363   -1.2562    0.0000 H       1  UNL1        0.0387
     19 H           1.8084   -0.0681    0.0000 H       1  UNL1        0.0778
     20 H           1.4103   -0.8493    0.0000 H       1  UNL1        0.0778
     21 H           2.1916   -1.2474    0.0000 H       1  UNL1        0.0778
     22 H           3.2317    0.7939    0.0000 H       1  UNL1        0.0778
     23 H           2.4504    1.1920    0.0000 H       1  UNL1        0.0778
     24 H           2.0524    0.4108    0.0000 H       1  UNL1        0.0778
     25 H           2.6704   -1.4914    0.0000 H       1  UNL1        0.0778
     26 H           3.4517   -1.8894    0.0000 H       1  UNL1        0.0778
     27 H           3.8497   -1.1082    0.0000 H       1  UNL1        0.0778
     28 H           6.4053   -1.6076    0.0000 H       1  UNL1        0.1675
     29 H           5.5409    1.0528    0.0000 H       1  UNL1        0.0825
     30 H           7.2698    1.0528    0.0000 H       1  UNL1        0.1673
@<TRIPOS>UNITY_ATOM_ATTR
2 1
charge -1
4 1
charge 1
@<TRIPOS>BOND
     1     1    15    2
     2     2    13   ar
     3     3    13   ar
     4     4     7    1
     5     4     9    1
     6     4    10    1
     7     4    11    1
     8     5    12   ar
     9     5    15   ar
    10     5    28    1
    11     6    14   ar
    12     6    15   ar
    13     6    30    1
    14     7     8    1
    15     7    13    1
    16     7    16    1
    17     8    12    1
    18     8    17    1
    19     8    18    1
    20     9    19    1
    21     9    20    1
    22     9    21    1
    23    10    22    1
    24    10    23    1
    25    10    24    1
    26    11    25    1
    27    11    26    1
    28    11    27    1
    29    12    14   ar
    30    14    29    1
