@<TRIPOS>MOLECULE
IMPHY007803
 49 52 0 0 0
SMALL
GASTEIGER

@<TRIPOS>ATOM
      1 O           5.5103    1.5072    0.0000 O.3     1  UNL1       -0.4908
      2 O           7.2762    2.5450    0.0000 O.3     1  UNL1       -0.4914
      3 O           2.8680   -0.0001    0.0000 O.3     1  UNL1       -0.4914
      4 O           2.8680   -2.0484    0.0000 O.3     1  UNL1       -0.4914
      5 N           8.1223   -2.0212    0.0000 N.pl3   1  UNL1       -0.3321
      6 C           7.2641   -0.5242    0.0000 C.ar    1  UNL1        0.0107
      7 C           7.2641   -1.5242    0.0000 C.ar    1  UNL1        0.0382
      8 C           8.1741   -0.0174    0.0000 C.ar    1  UNL1       -0.0327
      9 C           9.0134   -0.5456    0.0000 C.3     1  UNL1       -0.0112
     10 C           8.9878   -1.5370    0.0000 C.3     1  UNL1        0.0159
     11 C           6.3981   -0.0242    0.0000 C.ar    1  UNL1        0.0373
     12 C           5.5320   -0.5242    0.0000 C.ar    1  UNL1       -0.0027
     13 C           5.5320   -1.5242    0.0000 C.ar    1  UNL1       -0.0117
     14 C           6.3981   -2.0242    0.0000 C.ar    1  UNL1       -0.0322
     15 C           6.3820    1.0173    0.0000 C.ar    1  UNL1        0.1698
     16 C           8.1821    1.0242    0.0000 C.ar    1  UNL1       -0.0124
     17 C           7.2800    1.5450    0.0000 C.ar    1  UNL1        0.1624
     18 C           8.1149   -3.0211    0.0000 C.3     1  UNL1        0.0007
     19 C           4.6381    0.0104    0.0000 C.ar    1  UNL1       -0.0079
     20 C           4.6381   -2.0589    0.0000 C.ar    1  UNL1       -0.0085
     21 C           3.7320   -0.5034    0.0000 C.ar    1  UNL1        0.1621
     22 C           3.7320   -1.5450    0.0000 C.ar    1  UNL1        0.1621
     23 C           5.4987    2.5072    0.0000 C.3     1  UNL1        0.0790
     24 C           8.1403    3.0484    0.0000 C.3     1  UNL1        0.0790
     25 C           2.0000   -0.4967    0.0000 C.3     1  UNL1        0.0790
     26 C           2.8718   -3.0484    0.0000 C.3     1  UNL1        0.0790
     27 H           9.6205   -0.6715    0.0000 H       1  UNL1        0.0329
     28 H           9.2452    0.0295    0.0000 H       1  UNL1        0.0329
     29 H           9.1895   -2.1232    0.0000 H       1  UNL1        0.0467
     30 H           9.6006   -1.4426    0.0000 H       1  UNL1        0.0467
     31 H           6.3981   -2.6442    0.0000 H       1  UNL1        0.0642
     32 H           8.7203    1.3322    0.0000 H       1  UNL1        0.0658
     33 H           7.4949   -3.0165    0.0000 H       1  UNL1        0.0428
     34 H           8.1103   -3.6411    0.0000 H       1  UNL1        0.0428
     35 H           8.7349   -3.0257    0.0000 H       1  UNL1        0.0428
     36 H           4.6453    0.6304    0.0000 H       1  UNL1        0.0662
     37 H           4.6453   -2.6788    0.0000 H       1  UNL1        0.0661
     38 H           6.1187    2.5143    0.0000 H       1  UNL1        0.0660
     39 H           5.4915    3.1271    0.0000 H       1  UNL1        0.0660
     40 H           4.8787    2.5000    0.0000 H       1  UNL1        0.0660
     41 H           8.4523    2.5126    0.0000 H       1  UNL1        0.0660
     42 H           8.6760    3.3604    0.0000 H       1  UNL1        0.0660
     43 H           7.8282    3.5841    0.0000 H       1  UNL1        0.0660
     44 H           1.6921    0.0414    0.0000 H       1  UNL1        0.0660
     45 H           1.4619   -0.8047    0.0000 H       1  UNL1        0.0660
     46 H           2.3079   -1.0349    0.0000 H       1  UNL1        0.0660
     47 H           2.2518   -3.0508    0.0000 H       1  UNL1        0.0660
     48 H           2.8742   -3.6684    0.0000 H       1  UNL1        0.0660
     49 H           3.4918   -3.0460    0.0000 H       1  UNL1        0.0660
@<TRIPOS>BOND
     1     1    15    1
     2     1    23    1
     3     2    17    1
     4     2    24    1
     5     3    21    1
     6     3    25    1
     7     4    22    1
     8     4    26    1
     9     5     7    1
    10     5    10    1
    11     5    18    1
    12     6     7   ar
    13     6     8   ar
    14     6    11   ar
    15     7    14   ar
    16     8     9    1
    17     8    16   ar
    18     9    10    1
    19     9    27    1
    20     9    28    1
    21    10    29    1
    22    10    30    1
    23    11    12   ar
    24    11    15   ar
    25    12    13   ar
    26    12    19   ar
    27    13    14   ar
    28    13    20   ar
    29    14    31    1
    30    15    17   ar
    31    16    17   ar
    32    16    32    1
    33    18    33    1
    34    18    34    1
    35    18    35    1
    36    19    21   ar
    37    19    36    1
    38    20    22   ar
    39    20    37    1
    40    21    22   ar
    41    23    38    1
    42    23    39    1
    43    23    40    1
    44    24    41    1
    45    24    42    1
    46    24    43    1
    47    25    44    1
    48    25    45    1
    49    25    46    1
    50    26    47    1
    51    26    48    1
    52    26    49    1
