@<TRIPOS>MOLECULE
IMPHY008326
 96 101 0 0 0
SMALL
GASTEIGER

@<TRIPOS>ATOM
      1 O           7.7244    0.0004    0.0000 O.3     1  UNL1       -0.3712
      2 O           4.6557    0.0004    0.0000 O.3     1  UNL1       -0.3712
      3 O           2.6691    3.1273    0.0000 O.3     1  UNL1       -0.4914
      4 O           9.7191   -3.1178    0.0000 O.3     1  UNL1       -0.4914
      5 O           8.3834   -4.6065    0.0000 O.3     1  UNL1       -0.5031
      6 O           4.0074    4.6136    0.0000 O.3     1  UNL1       -0.5031
      7 O           5.1372   -3.0373    0.0000 O.3     1  UNL1       -0.3940
      8 O           7.2508    3.0388    0.0000 O.3     1  UNL1       -0.3940
      9 O           4.6765    5.3568    0.0000 O.2     1  UNL1       -0.2913
     10 O           7.7155   -5.3508    0.0000 O.2     1  UNL1       -0.2913
     11 O           8.9492    6.2193    0.0000 O.3     1  UNL1       -0.4914
     12 O           3.4443   -6.2207    0.0000 O.3     1  UNL1       -0.4914
     13 O           8.3312    8.1214    0.0000 O.3     1  UNL1       -0.5033
     14 O           4.0657   -8.1218    0.0000 O.3     1  UNL1       -0.5033
     15 C           6.1945    0.5004    0.0000 C.3     1  UNL1        0.0205
     16 C           6.1945   -0.4996    0.0000 C.3     1  UNL1        0.0205
     17 C           7.1407   -0.8044    0.0000 C.3     1  UNL1        0.0891
     18 C           5.2435    0.8094    0.0000 C.3     1  UNL1        0.0891
     19 C           7.1407    0.8051    0.0000 C.3     1  UNL1        0.0544
     20 C           5.2435   -0.8087    0.0000 C.3     1  UNL1        0.0544
     21 C           4.9344    1.7604    0.0000 C.ar    1  UNL1       -0.0146
     22 C           7.4514   -1.7549    0.0000 C.ar    1  UNL1       -0.0146
     23 C           5.6036    2.5036    0.0000 C.ar    1  UNL1       -0.0485
     24 C           6.7836   -2.4992    0.0000 C.ar    1  UNL1       -0.0485
     25 C           3.9563    1.9683    0.0000 C.ar    1  UNL1       -0.0106
     26 C           8.4299   -1.9611    0.0000 C.ar    1  UNL1       -0.0106
     27 C           5.2946    3.4546    0.0000 C.ar    1  UNL1        0.0108
     28 C           7.0942   -3.4497    0.0000 C.ar    1  UNL1        0.0108
     29 C           8.7406   -2.9116    0.0000 C.ar    1  UNL1        0.1619
     30 C           3.6473    2.9194    0.0000 C.ar    1  UNL1        0.1619
     31 C           8.0727   -3.6559    0.0000 C.ar    1  UNL1        0.1625
     32 C           4.3164    3.6625    0.0000 C.ar    1  UNL1        0.1625
     33 C           5.9637    4.1978    0.0000 C.3     1  UNL1        0.0737
     34 C           6.4264   -4.1940    0.0000 C.3     1  UNL1        0.0737
     35 C           5.4479   -3.9878    0.0000 C.3     1  UNL1        0.0582
     36 C           6.9418    3.9899    0.0000 C.3     1  UNL1        0.0582
     37 C           5.6547    5.1488    0.0000 C.2     1  UNL1        0.1729
     38 C           6.7370   -5.1445    0.0000 C.2     1  UNL1        0.1729
     39 C           2.0000    2.3842    0.0000 C.3     1  UNL1        0.0790
     40 C          10.3869   -2.3736    0.0000 C.3     1  UNL1        0.0790
     41 C           6.3238    5.8920    0.0000 C.ar    1  UNL1        0.0218
     42 C           6.0692   -5.8888    0.0000 C.ar    1  UNL1        0.0218
     43 C           5.0907   -5.6826    0.0000 C.ar    1  UNL1       -0.0058
     44 C           7.3020    5.6841    0.0000 C.ar    1  UNL1       -0.0058
     45 C           6.0148    6.8430    0.0000 C.ar    1  UNL1       -0.0476
     46 C           6.3798   -6.8394    0.0000 C.ar    1  UNL1       -0.0476
     47 C           4.4228   -6.4269    0.0000 C.ar    1  UNL1        0.1619
     48 C           7.9711    6.4272    0.0000 C.ar    1  UNL1        0.1619
     49 C           6.6839    7.5862    0.0000 C.ar    1  UNL1       -0.0159
     50 C           5.7120   -7.5837    0.0000 C.ar    1  UNL1       -0.0159
     51 C           4.7335   -7.3774    0.0000 C.ar    1  UNL1        0.1585
     52 C           7.6621    7.3783    0.0000 C.ar    1  UNL1        0.1585
     53 C           2.7765   -6.9650    0.0000 C.3     1  UNL1        0.0790
     54 C           9.6184    6.9624    0.0000 C.3     1  UNL1        0.0790
     55 H           6.1953   -1.1196    0.0000 H       1  UNL1        0.0356
     56 H           6.1953    1.1204    0.0000 H       1  UNL1        0.0356
     57 H           4.6311    0.9064    0.0000 H       1  UNL1        0.0650
     58 H           7.7532   -0.9006    0.0000 H       1  UNL1        0.0650
     59 H           4.7065   -1.1187    0.0000 H       1  UNL1        0.0564
     60 H           5.4956   -1.3751    0.0000 H       1  UNL1        0.0564
     61 H           7.6781    1.1143    0.0000 H       1  UNL1        0.0564
     62 H           6.8897    1.3720    0.0000 H       1  UNL1        0.0564
     63 H           6.2100    2.3747    0.0000 H       1  UNL1        0.0625
     64 H           6.1769   -2.3713    0.0000 H       1  UNL1        0.0625
     65 H           8.8440   -1.4996    0.0000 H       1  UNL1        0.0659
     66 H           3.5414    1.5076    0.0000 H       1  UNL1        0.0659
     67 H           6.0123   -4.6555    0.0000 H       1  UNL1        0.0453
     68 H           6.3786    4.6585    0.0000 H       1  UNL1        0.0453
     69 H           4.8341   -4.0752    0.0000 H       1  UNL1        0.0567
     70 H           5.4273   -4.6075    0.0000 H       1  UNL1        0.0567
     71 H           7.5558    4.0762    0.0000 H       1  UNL1        0.0567
     72 H           6.9635    4.6095    0.0000 H       1  UNL1        0.0567
     73 H           3.4009    4.7425    0.0000 H       1  UNL1        0.2923
     74 H           8.9901   -4.7343    0.0000 H       1  UNL1        0.2923
     75 H           1.5392    2.7990    0.0000 H       1  UNL1        0.0660
     76 H           1.5851    1.9234    0.0000 H       1  UNL1        0.0660
     77 H           2.4608    1.9693    0.0000 H       1  UNL1        0.0660
     78 H          10.8484   -2.7876    0.0000 H       1  UNL1        0.0660
     79 H          10.8010   -1.9121    0.0000 H       1  UNL1        0.0660
     80 H           9.9254   -1.9595    0.0000 H       1  UNL1        0.0660
     81 H           7.8573    2.9099    0.0000 H       1  UNL1        0.2094
     82 H           4.5305   -2.9094    0.0000 H       1  UNL1        0.2094
     83 H           7.4935    5.0944    0.0000 H       1  UNL1        0.0662
     84 H           4.8981   -5.0933    0.0000 H       1  UNL1        0.0662
     85 H           5.4083    6.9719    0.0000 H       1  UNL1        0.0626
     86 H           6.9865   -6.9672    0.0000 H       1  UNL1        0.0626
     87 H           6.4923    8.1758    0.0000 H       1  UNL1        0.0655
     88 H           5.9046   -8.1730    0.0000 H       1  UNL1        0.0655
     89 H           4.2583   -8.7111    0.0000 H       1  UNL1        0.2923
     90 H           8.1396    8.7111    0.0000 H       1  UNL1        0.2923
     91 H           2.3150   -6.5509    0.0000 H       1  UNL1        0.0660
     92 H          10.0791    6.5476    0.0000 H       1  UNL1        0.0660
     93 H           2.3624   -7.4265    0.0000 H       1  UNL1        0.0660
     94 H           3.2380   -7.3791    0.0000 H       1  UNL1        0.0660
     95 H          10.0332    7.4232    0.0000 H       1  UNL1        0.0660
     96 H           9.1576    7.3773    0.0000 H       1  UNL1        0.0660
@<TRIPOS>BOND
     1     1    17    1
     2     1    19    1
     3     2    18    1
     4     2    20    1
     5     3    30    1
     6     3    39    1
     7     4    29    1
     8     4    40    1
     9     5    31    1
    10     5    74    1
    11     6    32    1
    12     6    73    1
    13     7    35    1
    14     7    82    1
    15     8    36    1
    16     8    81    1
    17     9    37    2
    18    10    38    2
    19    11    48    1
    20    11    54    1
    21    12    47    1
    22    12    53    1
    23    13    52    1
    24    13    90    1
    25    14    51    1
    26    14    89    1
    27    15    16    1
    28    15    18    1
    29    15    19    1
    30    15    56    1
    31    16    17    1
    32    16    20    1
    33    16    55    1
    34    17    22    1
    35    17    58    1
    36    18    21    1
    37    18    57    1
    38    19    61    1
    39    19    62    1
    40    20    59    1
    41    20    60    1
    42    21    23   ar
    43    21    25   ar
    44    22    24   ar
    45    22    26   ar
    46    23    27   ar
    47    23    63    1
    48    24    28   ar
    49    24    64    1
    50    25    30   ar
    51    25    66    1
    52    26    29   ar
    53    26    65    1
    54    27    32   ar
    55    27    33    1
    56    28    31   ar
    57    28    34    1
    58    29    31   ar
    59    30    32   ar
    60    33    36    1
    61    33    37    1
    62    33    68    1
    63    34    35    1
    64    34    38    1
    65    34    67    1
    66    35    69    1
    67    35    70    1
    68    36    71    1
    69    36    72    1
    70    37    41    1
    71    38    42    1
    72    39    75    1
    73    39    76    1
    74    39    77    1
    75    40    78    1
    76    40    79    1
    77    40    80    1
    78    41    44   ar
    79    41    45   ar
    80    42    43   ar
    81    42    46   ar
    82    43    47   ar
    83    43    84    1
    84    44    48   ar
    85    44    83    1
    86    45    49   ar
    87    45    85    1
    88    46    50   ar
    89    46    86    1
    90    47    51   ar
    91    48    52   ar
    92    49    52   ar
    93    49    87    1
    94    50    51   ar
    95    50    88    1
    96    53    91    1
    97    53    93    1
    98    53    94    1
    99    54    92    1
   100    54    95    1
   101    54    96    1
