@<TRIPOS>MOLECULE
IMPHY013333
 34 33 0 0 0
SMALL
GASTEIGER

@<TRIPOS>ATOM
      1 O          11.5263   -0.2500    0.0000 O.2     1  UNL1       -0.5146
      2 C           5.4641    0.2500    0.0000 C.3     1  UNL1       -0.0531
      3 C           6.3301   -0.2500    0.0000 C.3     1  UNL1       -0.0530
      4 C           4.5981   -0.2500    0.0000 C.3     1  UNL1       -0.0531
      5 C           7.1962    0.2500    0.0000 C.3     1  UNL1       -0.0528
      6 C           3.7320    0.2500    0.0000 C.3     1  UNL1       -0.0533
      7 C           8.0622   -0.2500    0.0000 C.3     1  UNL1       -0.0495
      8 C           2.8660   -0.2500    0.0000 C.3     1  UNL1       -0.0559
      9 C           8.9282    0.2500    0.0000 C.3     1  UNL1       -0.0316
     10 C           2.0000    0.2500    0.0000 C.3     1  UNL1       -0.0653
     11 C           9.7942   -0.2500    0.0000 C.2     1  UNL1       -0.0499
     12 C          10.6603    0.2500    0.0000 C.2     1  UNL1        0.0769
     13 H           5.8626    0.7249    0.0000 H       1  UNL1        0.0265
     14 H           5.0656    0.7249    0.0000 H       1  UNL1        0.0265
     15 H           5.9316   -0.7249    0.0000 H       1  UNL1        0.0265
     16 H           6.7287   -0.7249    0.0000 H       1  UNL1        0.0265
     17 H           4.1996   -0.7249    0.0000 H       1  UNL1        0.0265
     18 H           4.9966   -0.7249    0.0000 H       1  UNL1        0.0265
     19 H           7.5947    0.7249    0.0000 H       1  UNL1        0.0265
     20 H           6.7976    0.7249    0.0000 H       1  UNL1        0.0265
     21 H           4.1306    0.7249    0.0000 H       1  UNL1        0.0265
     22 H           3.3335    0.7249    0.0000 H       1  UNL1        0.0265
     23 H           7.6636   -0.7249    0.0000 H       1  UNL1        0.0268
     24 H           8.4607   -0.7249    0.0000 H       1  UNL1        0.0268
     25 H           2.4675   -0.7249    0.0000 H       1  UNL1        0.0263
     26 H           3.2646   -0.7249    0.0000 H       1  UNL1        0.0263
     27 H           9.3267    0.7249    0.0000 H       1  UNL1        0.0308
     28 H           8.5297    0.7249    0.0000 H       1  UNL1        0.0308
     29 H           2.3100    0.7869    0.0000 H       1  UNL1        0.0230
     30 H           1.4631    0.5600    0.0000 H       1  UNL1        0.0230
     31 H           1.6900   -0.2869    0.0000 H       1  UNL1        0.0230
     32 H           9.7942   -0.8700    0.0000 H       1  UNL1        0.0602
     33 H          10.6603    0.8700    0.0000 H       1  UNL1        0.1017
     34 H          12.0632    0.0600    0.0000 H       1  UNL1        0.2912
@<TRIPOS>BOND
     1     1    12    1
     2     1    34    1
     3     2     3    1
     4     2     4    1
     5     2    13    1
     6     2    14    1
     7     3     5    1
     8     3    15    1
     9     3    16    1
    10     4     6    1
    11     4    17    1
    12     4    18    1
    13     5     7    1
    14     5    19    1
    15     5    20    1
    16     6     8    1
    17     6    21    1
    18     6    22    1
    19     7     9    1
    20     7    23    1
    21     7    24    1
    22     8    10    1
    23     8    25    1
    24     8    26    1
    25     9    11    1
    26     9    27    1
    27     9    28    1
    28    10    29    1
    29    10    30    1
    30    10    31    1
    31    11    12    2
    32    11    32    1
    33    12    33    1
