@<TRIPOS>MOLECULE
IMPHY007568
 28 30 0 0 0
SMALL
GASTEIGER

@<TRIPOS>ATOM
      1 O           6.6498    1.9147    0.0000 O.3     1  UNL1       -0.4930
      2 O           8.3780   -1.3408    0.0000 O.2     1  UNL1       -0.2957
      3 N           4.5274    1.3156    0.0000 N.ar    1  UNL1       -0.3513
      4 C           5.0274   -0.2232    0.0000 C.ar    1  UNL1        0.0116
      5 C           5.3364    0.7278    0.0000 C.ar    1  UNL1        0.0897
      6 C           4.0274   -0.2232    0.0000 C.ar    1  UNL1        0.0075
      7 C           3.7183    0.7278    0.0000 C.ar    1  UNL1        0.0476
      8 C           6.3518    0.9601    0.0000 C.ar    1  UNL1        0.1445
      9 C           5.7123   -1.0079    0.0000 C.ar    1  UNL1       -0.0416
     10 C           3.3424   -1.0079    0.0000 C.ar    1  UNL1       -0.0520
     11 C           6.7328   -0.7992    0.0000 C.ar    1  UNL1        0.0183
     12 C           2.7029    0.9601    0.0000 C.ar    1  UNL1       -0.0378
     13 C           7.0547    0.1914    0.0000 C.ar    1  UNL1       -0.0077
     14 C           2.3219   -0.7992    0.0000 C.ar    1  UNL1       -0.0611
     15 C           2.0000    0.1914    0.0000 C.ar    1  UNL1       -0.0598
     16 C           7.3991   -1.5450    0.0000 C.2     1  UNL1        0.1503
     17 C           7.6255    2.1339    0.0000 C.3     1  UNL1        0.0789
     18 H           4.5274    1.9356    0.0000 H       1  UNL1        0.1660
     19 H           5.5139   -1.5954    0.0000 H       1  UNL1        0.0631
     20 H           3.5408   -1.5954    0.0000 H       1  UNL1        0.0624
     21 H           2.5182    1.5519    0.0000 H       1  UNL1        0.0638
     22 H           7.6607    0.3227    0.0000 H       1  UNL1        0.0662
     23 H           1.9088   -1.2616    0.0000 H       1  UNL1        0.0618
     24 H           1.3940    0.3227    0.0000 H       1  UNL1        0.0618
     25 H           7.2052   -2.1339    0.0000 H       1  UNL1        0.1081
     26 H           7.7614    1.5290    0.0000 H       1  UNL1        0.0660
     27 H           8.2304    2.2698    0.0000 H       1  UNL1        0.0660
     28 H           7.4896    2.7388    0.0000 H       1  UNL1        0.0660
@<TRIPOS>BOND
     1     1     8    1
     2     1    17    1
     3     2    16    2
     4     3     5   ar
     5     3     7   ar
     6     3    18    1
     7     4     5   ar
     8     4     6   ar
     9     4     9   ar
    10     5     8   ar
    11     6     7   ar
    12     6    10   ar
    13     7    12   ar
    14     8    13   ar
    15     9    11   ar
    16     9    19    1
    17    10    14   ar
    18    10    20    1
    19    11    13   ar
    20    11    16    1
    21    12    15   ar
    22    12    21    1
    23    13    22    1
    24    14    15   ar
    25    14    23    1
    26    15    24    1
    27    16    25    1
    28    17    26    1
    29    17    27    1
    30    17    28    1
