@<TRIPOS>MOLECULE
IMPHY005309
 49 51 0 0 0
SMALL
GASTEIGER

@<TRIPOS>ATOM
      1 O           6.0290   -0.2067    0.0000 O.3     1  UNL1       -0.4897
      2 O           3.4030   -3.6721    0.0000 O.3     1  UNL1       -0.3891
      3 O           6.0174    2.8625    0.0000 O.2     1  UNL1       -0.2910
      4 O           2.5369   -0.1721    0.0000 O.3     1  UNL1       -0.5063
      5 O           4.2690    2.8279    0.0000 O.3     1  UNL1       -0.5058
      6 O           8.6709    0.3554    0.0000 O.3     1  UNL1       -0.5064
      7 O          10.3914    3.3621    0.0000 O.3     1  UNL1       -0.5066
      8 C           3.4030   -1.6721    0.0000 C.3     1  UNL1       -0.0203
      9 C           6.9350    1.3487    0.0000 C.3     1  UNL1        0.0847
     10 C           4.2690   -1.1721    0.0000 C.3     1  UNL1       -0.0181
     11 C           3.4030   -2.6721    0.0000 C.3     1  UNL1        0.0608
     12 C           4.2690   -0.1721    0.0000 C.ar    1  UNL1        0.0366
     13 C           5.1350    0.3279    0.0000 C.ar    1  UNL1        0.1412
     14 C           5.1350    1.3279    0.0000 C.ar    1  UNL1        0.1015
     15 C           6.9350    0.3071    0.0000 C.3     1  UNL1        0.1036
     16 C           6.0290    1.8626    0.0000 C.2     1  UNL1        0.1809
     17 C           7.7991    1.8521    0.0000 C.ar    1  UNL1        0.0081
     18 C           3.4030    0.3279    0.0000 C.ar    1  UNL1        0.1270
     19 C           4.2690    1.8279    0.0000 C.ar    1  UNL1        0.1343
     20 C           2.4030   -2.6721    0.0000 C.3     1  UNL1       -0.0363
     21 C           4.4030   -2.6721    0.0000 C.3     1  UNL1       -0.0363
     22 C           3.4030    1.3279    0.0000 C.ar    1  UNL1        0.0225
     23 C           8.6671    1.3554    0.0000 C.ar    1  UNL1        0.1243
     24 C           7.7953    2.8521    0.0000 C.ar    1  UNL1       -0.0509
     25 C           9.5312    1.8588    0.0000 C.ar    1  UNL1        0.0216
     26 C           8.6594    3.3554    0.0000 C.ar    1  UNL1       -0.0197
     27 C           9.5273    2.8587    0.0000 C.ar    1  UNL1        0.1203
     28 H           3.1909   -1.0895    0.0000 H       1  UNL1        0.0296
     29 H           2.7924   -1.7797    0.0000 H       1  UNL1        0.0296
     30 H           7.4726    1.0398    0.0000 H       1  UNL1        0.0464
     31 H           4.4810   -1.7547    0.0000 H       1  UNL1        0.0316
     32 H           4.8796   -1.0644    0.0000 H       1  UNL1        0.0316
     33 H           7.1441   -0.2766    0.0000 H       1  UNL1        0.0707
     34 H           7.5459    0.4132    0.0000 H       1  UNL1        0.0707
     35 H           2.4030   -2.0521    0.0000 H       1  UNL1        0.0257
     36 H           4.4030   -3.2921    0.0000 H       1  UNL1        0.0257
     37 H           5.0230   -2.6721    0.0000 H       1  UNL1        0.0257
     38 H           4.4030   -2.0521    0.0000 H       1  UNL1        0.0257
     39 H           1.7830   -2.6721    0.0000 H       1  UNL1        0.0257
     40 H           2.4030   -3.2921    0.0000 H       1  UNL1        0.0257
     41 H           2.8660    1.6379    0.0000 H       1  UNL1        0.0691
     42 H           7.2571    3.1600    0.0000 H       1  UNL1        0.0623
     43 H           2.8660   -3.9821    0.0000 H       1  UNL1        0.2101
     44 H          10.0693    1.5508    0.0000 H       1  UNL1        0.0691
     45 H           8.6570    3.9754    0.0000 H       1  UNL1        0.0654
     46 H           2.0000    0.1379    0.0000 H       1  UNL1        0.2921
     47 H           3.7320    3.1379    0.0000 H       1  UNL1        0.2922
     48 H           9.2090    0.0475    0.0000 H       1  UNL1        0.2921
     49 H          10.3890    3.9821    0.0000 H       1  UNL1        0.2921
@<TRIPOS>BOND
     1     1    13    1
     2     1    15    1
     3     2    11    1
     4     2    43    1
     5     3    16    2
     6     4    18    1
     7     4    46    1
     8     5    19    1
     9     5    47    1
    10     6    23    1
    11     6    48    1
    12     7    27    1
    13     7    49    1
    14     8    10    1
    15     8    11    1
    16     8    28    1
    17     8    29    1
    18     9    15    1
    19     9    16    1
    20     9    17    1
    21     9    30    1
    22    10    12    1
    23    10    31    1
    24    10    32    1
    25    11    20    1
    26    11    21    1
    27    12    13   ar
    28    12    18   ar
    29    13    14   ar
    30    14    16    1
    31    14    19   ar
    32    15    33    1
    33    15    34    1
    34    17    23   ar
    35    17    24   ar
    36    18    22   ar
    37    19    22   ar
    38    20    35    1
    39    20    39    1
    40    20    40    1
    41    21    36    1
    42    21    37    1
    43    21    38    1
    44    22    41    1
    45    23    25   ar
    46    24    26   ar
    47    24    42    1
    48    25    27   ar
    49    25    44    1
    50    26    27   ar
    51    26    45    1
