@<TRIPOS>MOLECULE
IMPHY004940
 38 40 0 0 0
SMALL
GASTEIGER

@<TRIPOS>ATOM
      1 O           8.0321   -0.2614    0.0000 O.3     1  UNL1       -0.5057
      2 O           7.0864   -3.1593    0.0000 O.2     1  UNL1       -0.2956
      3 N           4.5274    0.6511    0.0000 N.ar    1  UNL1       -0.3538
      4 C           5.3364    0.0634    0.0000 C.ar    1  UNL1        0.0545
      5 C           5.0274   -0.8877    0.0000 C.ar    1  UNL1        0.0086
      6 C           6.3518    0.2956    0.0000 C.ar    1  UNL1        0.0223
      7 C           4.0274   -0.8877    0.0000 C.ar    1  UNL1        0.0074
      8 C           3.7183    0.0634    0.0000 C.ar    1  UNL1        0.0475
      9 C           6.6498    1.2502    0.0000 C.3     1  UNL1       -0.0038
     10 C           5.7123   -1.6724    0.0000 C.ar    1  UNL1       -0.0383
     11 C           7.0547   -0.4731    0.0000 C.ar    1  UNL1        0.1325
     12 C           6.7328   -1.4637    0.0000 C.ar    1  UNL1        0.0565
     13 C           3.3424   -1.6724    0.0000 C.ar    1  UNL1       -0.0520
     14 C           2.7029    0.2956    0.0000 C.ar    1  UNL1       -0.0378
     15 C           7.6255    1.4694    0.0000 C.2     1  UNL1       -0.0808
     16 C           2.3219   -1.4637    0.0000 C.ar    1  UNL1       -0.0611
     17 C           2.0000   -0.4731    0.0000 C.ar    1  UNL1       -0.0598
     18 C           7.9235    2.4240    0.0000 C.2     1  UNL1       -0.0793
     19 C           7.3991   -2.2094    0.0000 C.2     1  UNL1        0.1537
     20 C           8.8991    2.6432    0.0000 C.3     1  UNL1       -0.0440
     21 C           7.2458    3.1593    0.0000 C.3     1  UNL1       -0.0440
     22 H           4.5274    1.2711    0.0000 H       1  UNL1        0.1659
     23 H           6.6210    1.8695    0.0000 H       1  UNL1        0.0357
     24 H           6.0349    1.3294    0.0000 H       1  UNL1        0.0357
     25 H           5.5139   -2.2598    0.0000 H       1  UNL1        0.0632
     26 H           3.5408   -2.2598    0.0000 H       1  UNL1        0.0624
     27 H           2.5182    0.8874    0.0000 H       1  UNL1        0.0638
     28 H           8.0456    1.0135    0.0000 H       1  UNL1        0.0575
     29 H           1.9088   -1.9261    0.0000 H       1  UNL1        0.0618
     30 H           1.3940   -0.3418    0.0000 H       1  UNL1        0.0618
     31 H           8.0060   -2.0829    0.0000 H       1  UNL1        0.1083
     32 H           8.4487   -0.7205    0.0000 H       1  UNL1        0.2922
     33 H           9.0350    2.0382    0.0000 H       1  UNL1        0.0274
     34 H           9.5041    2.7791    0.0000 H       1  UNL1        0.0274
     35 H           7.7017    3.5795    0.0000 H       1  UNL1        0.0274
     36 H           6.8256    3.6152    0.0000 H       1  UNL1        0.0274
     37 H           6.7899    2.7391    0.0000 H       1  UNL1        0.0274
     38 H           8.7632    3.2481    0.0000 H       1  UNL1        0.0274
@<TRIPOS>BOND
     1     1    11    1
     2     1    32    1
     3     2    19    2
     4     3     4   ar
     5     3     8   ar
     6     3    22    1
     7     4     5   ar
     8     4     6   ar
     9     5     7   ar
    10     5    10   ar
    11     6     9    1
    12     6    11   ar
    13     7     8   ar
    14     7    13   ar
    15     8    14   ar
    16     9    15    1
    17     9    23    1
    18     9    24    1
    19    10    12   ar
    20    10    25    1
    21    11    12   ar
    22    12    19    1
    23    13    16   ar
    24    13    26    1
    25    14    17   ar
    26    14    27    1
    27    15    18    2
    28    15    28    1
    29    16    17   ar
    30    16    29    1
    31    17    30    1
    32    18    20    1
    33    18    21    1
    34    19    31    1
    35    20    33    1
    36    20    34    1
    37    20    38    1
    38    21    35    1
    39    21    36    1
    40    21    37    1
