@<TRIPOS>MOLECULE
IMPHY016582
 42 44 0 0 0
SMALL
GASTEIGER

@<TRIPOS>ATOM
      1 O           6.0502    1.7420    0.0000 O.3     1  UNL1       -0.3912
      2 C           4.4192   -1.1955    0.0000 C.3     1  UNL1       -0.0252
      3 C           3.4954   -0.8129    0.0000 C.3     1  UNL1       -0.0302
      4 C           4.4192    1.4176    0.0000 C.3     1  UNL1       -0.0056
      5 C           2.8517   -1.5704    0.0000 C.3     1  UNL1       -0.0315
      6 C           4.0532    0.1110    0.0000 C.3     1  UNL1       -0.0393
      7 C           4.3387   -2.1864    0.0000 C.3     1  UNL1       -0.0466
      8 C           5.3431   -0.8129    0.0000 C.3     1  UNL1       -0.0447
      9 C           3.1127    0.1110    0.0000 C.3     1  UNL1       -0.0486
     10 C           3.3719   -2.4176    0.0000 C.3     1  UNL1       -0.0471
     11 C           3.4954    1.0349    0.0000 C.3     1  UNL1       -0.0450
     12 C           5.3431    1.0349    0.0000 C.3     1  UNL1        0.0606
     13 C           5.7258    0.1110    0.0000 C.3     1  UNL1       -0.0258
     14 C           4.4192    2.4176    0.0000 C.3     1  UNL1       -0.0572
     15 C           2.0000   -2.0944    0.0000 C.3     1  UNL1       -0.0595
     16 C           2.0902   -0.9223    0.0000 C.3     1  UNL1       -0.0595
     17 H           3.9338   -0.3745    0.0000 H       1  UNL1        0.0311
     18 H           3.5467    0.4686    0.0000 H       1  UNL1        0.0277
     19 H           4.6732    0.1110    0.0000 H       1  UNL1        0.0277
     20 H           4.4187   -2.8012    0.0000 H       1  UNL1        0.0271
     21 H           4.9585   -2.1714    0.0000 H       1  UNL1        0.0271
     22 H           5.4241   -1.4276    0.0000 H       1  UNL1        0.0271
     23 H           5.9578   -0.8938    0.0000 H       1  UNL1        0.0271
     24 H           2.6208    0.4884    0.0000 H       1  UNL1        0.0268
     25 H           2.6208   -0.2664    0.0000 H       1  UNL1        0.0268
     26 H           2.8124   -2.6847    0.0000 H       1  UNL1        0.0271
     27 H           3.5787   -3.0021    0.0000 H       1  UNL1        0.0271
     28 H           3.4144    1.6496    0.0000 H       1  UNL1        0.0271
     29 H           2.8807    1.1158    0.0000 H       1  UNL1        0.0271
     30 H           5.9512    0.9139    0.0000 H       1  UNL1        0.0599
     31 H           6.2177   -0.2664    0.0000 H       1  UNL1        0.0290
     32 H           6.2177    0.4884    0.0000 H       1  UNL1        0.0290
     33 H           5.0392    2.4176    0.0000 H       1  UNL1        0.0236
     34 H           4.4192    3.0376    0.0000 H       1  UNL1        0.0236
     35 H           3.7992    2.4176    0.0000 H       1  UNL1        0.0236
     36 H           1.6751   -1.5663    0.0000 H       1  UNL1        0.0235
     37 H           1.4719   -2.4193    0.0000 H       1  UNL1        0.0235
     38 H           2.3249   -2.6225    0.0000 H       1  UNL1        0.0235
     39 H           2.4920   -0.4502    0.0000 H       1  UNL1        0.0235
     40 H           1.6181   -0.5205    0.0000 H       1  UNL1        0.0235
     41 H           1.6884   -1.3945    0.0000 H       1  UNL1        0.0235
     42 H           6.6491    1.5815    0.0000 H       1  UNL1        0.2098
@<TRIPOS>BOND
     1    12     1    1
     2     1    42    1
     3     2     3    1
     4     2     6    1
     5     2     7    1
     6     2     8    1
     7     3     5    1
     8     3     9    1
     9     3    17    1
    10     4     6    1
    11     4    11    1
    12     4    12    1
    13     4    14    1
    14     5    10    1
    15     5    15    1
    16     5    16    1
    17     6    18    1
    18     6    19    1
    19     7    10    1
    20     7    20    1
    21     7    21    1
    22     8    13    1
    23     8    22    1
    24     8    23    1
    25     9    11    1
    26     9    24    1
    27     9    25    1
    28    10    26    1
    29    10    27    1
    30    11    28    1
    31    11    29    1
    32    12    13    1
    33    12    30    1
    34    13    31    1
    35    13    32    1
    36    14    33    1
    37    14    34    1
    38    14    35    1
    39    15    36    1
    40    15    37    1
    41    15    38    1
    42    16    39    1
    43    16    40    1
    44    16    41    1
