@<TRIPOS>MOLECULE
IMPHY014517
 75 79 0 0 0
SMALL
GASTEIGER

@<TRIPOS>ATOM
      1 O           6.8671   -1.9000    0.0000 O.3     1  UNL1       -0.3445
      2 O           5.0830    2.1484    0.0000 O.3     1  UNL1       -0.4562
      3 O          10.3972    1.1241    0.0000 O.3     1  UNL1       -0.3877
      4 O           4.2308    0.5969    0.0000 O.2     1  UNL1       -0.2505
      5 O           5.1350   -1.9000    0.0000 O.3     1  UNL1       -0.3405
      6 O           9.4756   -2.4446    0.0000 O.3     1  UNL1       -0.4647
      7 O           7.7437   -2.4246    0.0000 O.2     1  UNL1       -0.2453
      8 O           6.8671   -3.9000    0.0000 O.3     1  UNL1       -0.3841
      9 O           6.4949    5.2062    0.0000 O.2     1  UNL1       -0.4706
     10 O           5.1350   -4.9000    0.0000 O.3     1  UNL1       -0.3864
     11 O           3.4030   -3.9000    0.0000 O.3     1  UNL1       -0.3865
     12 O           2.5369   -2.4000    0.0000 O.3     1  UNL1       -0.3924
     13 C           6.8671    1.1000    0.0000 C.3     1  UNL1       -0.0116
     14 C           7.7331    0.6000    0.0000 C.3     1  UNL1       -0.0201
     15 C           7.7331   -0.4000    0.0000 C.3     1  UNL1        0.0292
     16 C           6.0010    0.6000    0.0000 C.3     1  UNL1        0.0646
     17 C           6.8671   -0.9000    0.0000 C.3     1  UNL1        0.0724
     18 C           6.0010   -0.4000    0.0000 C.3     1  UNL1       -0.0122
     19 C           6.8831    2.1415    0.0000 C.3     1  UNL1       -0.0049
     20 C           8.6270    1.1347    0.0000 C.3     1  UNL1       -0.0190
     21 C           8.6270   -0.9347    0.0000 C.2     1  UNL1        0.0437
     22 C           7.7331    1.6000    0.0000 C.3     1  UNL1       -0.0584
     23 C           7.7331   -1.4000    0.0000 C.3     1  UNL1       -0.0527
     24 C           9.5331    0.6208    0.0000 C.3     1  UNL1        0.0744
     25 C           5.9851    2.6693    0.0000 C.3     1  UNL1        0.1315
     26 C           5.0910    1.1068    0.0000 C.2     1  UNL1        0.3114
     27 C           9.5331   -0.4208    0.0000 C.2     1  UNL1       -0.0453
     28 C           8.6155   -1.9346    0.0000 C.2     1  UNL1        0.3353
     29 C           6.0010   -2.4000    0.0000 C.3     1  UNL1        0.1882
     30 C           5.9889    3.6692    0.0000 C.ar    1  UNL1        0.0304
     31 C           6.0010   -3.4000    0.0000 C.3     1  UNL1        0.1341
     32 C           5.1350   -3.9000    0.0000 C.3     1  UNL1        0.1141
     33 C           5.1822    4.2602    0.0000 C.ar    1  UNL1       -0.0172
     34 C           4.2690   -2.4000    0.0000 C.3     1  UNL1        0.1130
     35 C           6.8002    4.2539    0.0000 C.ar    1  UNL1        0.0983
     36 C           4.2690   -3.4000    0.0000 C.3     1  UNL1        0.1119
     37 C           5.4949    5.2100    0.0000 C.ar    1  UNL1        0.0921
     38 C           3.4030   -1.9000    0.0000 C.3     1  UNL1        0.0730
     39 C           9.4641   -3.4445    0.0000 C.3     1  UNL1        0.0820
     40 H           8.4725    0.1807    0.0000 H       1  UNL1        0.0316
     41 H           5.2682    0.1693    0.0000 H       1  UNL1        0.0420
     42 H           6.3301   -1.2100    0.0000 H       1  UNL1        0.0606
     43 H           5.3905   -0.2923    0.0000 H       1  UNL1        0.0298
     44 H           5.7890   -0.9826    0.0000 H       1  UNL1        0.0298
     45 H           7.4923    2.0260    0.0000 H       1  UNL1        0.0310
     46 H           7.1012    2.7219    0.0000 H       1  UNL1        0.0310
     47 H           9.0207    1.6137    0.0000 H       1  UNL1        0.0296
     48 H           8.2224    1.6044    0.0000 H       1  UNL1        0.0296
     49 H           8.0431    1.0631    0.0000 H       1  UNL1        0.0235
     50 H           8.2700    1.9100    0.0000 H       1  UNL1        0.0235
     51 H           7.4231    2.1369    0.0000 H       1  UNL1        0.0235
     52 H           7.1131   -1.4000    0.0000 H       1  UNL1        0.0239
     53 H           7.7331   -2.0200    0.0000 H       1  UNL1        0.0239
     54 H           8.3531   -1.4000    0.0000 H       1  UNL1        0.0239
     55 H           9.5295    1.2408    0.0000 H       1  UNL1        0.0638
     56 H           5.4488    2.9803    0.0000 H       1  UNL1        0.0786
     57 H          10.0688   -0.7329    0.0000 H       1  UNL1        0.0603
     58 H           6.0010   -1.7800    0.0000 H       1  UNL1        0.0937
     59 H          10.9353    0.8162    0.0000 H       1  UNL1        0.2102
     60 H           6.0010   -4.0200    0.0000 H       1  UNL1        0.0671
     61 H           4.5981   -4.2100    0.0000 H       1  UNL1        0.0648
     62 H           4.5918    4.0708    0.0000 H       1  UNL1        0.0653
     63 H           4.2690   -1.7800    0.0000 H       1  UNL1        0.0647
     64 H           7.3891    4.0601    0.0000 H       1  UNL1        0.1033
     65 H           4.2690   -4.0200    0.0000 H       1  UNL1        0.0647
     66 H           5.1324    5.7130    0.0000 H       1  UNL1        0.1029
     67 H           6.8671   -4.5200    0.0000 H       1  UNL1        0.2101
     68 H           3.8015   -1.4251    0.0000 H       1  UNL1        0.0584
     69 H           3.0044   -1.4251    0.0000 H       1  UNL1        0.0584
     70 H           8.8441   -3.4373    0.0000 H       1  UNL1        0.0661
     71 H           9.4569   -4.0645    0.0000 H       1  UNL1        0.0661
     72 H          10.0840   -3.4517    0.0000 H       1  UNL1        0.0661
     73 H           4.5981   -5.2100    0.0000 H       1  UNL1        0.2100
     74 H           3.4030   -4.5200    0.0000 H       1  UNL1        0.2100
     75 H           2.0000   -2.0900    0.0000 H       1  UNL1        0.2095
@<TRIPOS>BOND
     1    17     1    1
     2    29     1    1
     3     2    25    1
     4     2    26    1
     5    24     3    1
     6     3    59    1
     7     4    26    2
     8     5    29    1
     9     5    34    1
    10     6    28    1
    11     6    39    1
    12     7    28    2
    13    31     8    1
    14     8    67    1
    15     9    35   ar
    16     9    37   ar
    17    32    10    1
    18    10    73    1
    19    36    11    1
    20    11    74    1
    21    12    38    1
    22    12    75    1
    23    13    14    1
    24    13    16    1
    25    13    19    1
    26    13    22    1
    27    14    15    1
    28    14    20    1
    29    14    40    1
    30    15    17    1
    31    15    21    1
    32    15    23    1
    33    16    18    1
    34    16    26    1
    35    16    41    1
    36    17    18    1
    37    17    42    1
    38    18    43    1
    39    18    44    1
    40    19    25    1
    41    19    45    1
    42    19    46    1
    43    20    24    1
    44    20    47    1
    45    20    48    1
    46    21    27    2
    47    21    28    1
    48    22    49    1
    49    22    50    1
    50    22    51    1
    51    23    52    1
    52    23    53    1
    53    23    54    1
    54    24    27    1
    55    24    55    1
    56    25    30    1
    57    25    56    1
    58    27    57    1
    59    29    31    1
    60    29    58    1
    61    30    33   ar
    62    30    35   ar
    63    31    32    1
    64    31    60    1
    65    32    36    1
    66    32    61    1
    67    33    37   ar
    68    33    62    1
    69    34    36    1
    70    34    38    1
    71    34    63    1
    72    35    64    1
    73    36    65    1
    74    37    66    1
    75    38    68    1
    76    38    69    1
    77    39    70    1
    78    39    71    1
    79    39    72    1
