@<TRIPOS>MOLECULE
IMPHY005147
 40 42 0 0 0
SMALL
GASTEIGER

@<TRIPOS>ATOM
      1 O           4.4453   -2.7034    0.0000 O.3     1  UNL1       -0.3947
      2 C           4.0984   -0.0552    0.0000 C.3     1  UNL1       -0.0175
      3 C           3.1974    0.3786    0.0000 C.3     1  UNL1       -0.0136
      4 C           4.5984    2.1354    0.0000 C.3     1  UNL1       -0.0316
      5 C           3.9916    1.1215    0.0000 C.3     1  UNL1       -0.0429
      6 C           3.9624   -1.0400    0.0000 C.3     1  UNL1       -0.0116
      7 C           4.9994    0.3786    0.0000 C.3     1  UNL1       -0.0462
      8 C           3.5984    2.1354    0.0000 C.3     1  UNL1       -0.0110
      9 C           5.2219    1.3536    0.0000 C.3     1  UNL1       -0.0489
     10 C           2.5124   -0.3417    0.0000 C.3     1  UNL1       -0.0456
     11 C           2.9749    1.3536    0.0000 C.2     1  UNL1       -0.0671
     12 C           2.9842   -1.2166    0.0000 C.3     1  UNL1       -0.0471
     13 C           4.6840   -1.7323    0.0000 C.3     1  UNL1        0.0475
     14 C           2.7722    2.6987    0.0000 C.3     1  UNL1       -0.0558
     15 C           3.6732    3.1326    0.0000 C.3     1  UNL1       -0.0558
     16 C           2.0000    1.5761    0.0000 C.2     1  UNL1       -0.0986
     17 H           2.4316    0.7474    0.0000 H       1  UNL1        0.0351
     18 H           4.7876    2.9641    0.0000 H       1  UNL1        0.0309
     19 H           3.5838    1.5885    0.0000 H       1  UNL1        0.0274
     20 H           3.4215    0.8777    0.0000 H       1  UNL1        0.0274
     21 H           3.7833   -1.6336    0.0000 H       1  UNL1        0.0328
     22 H           5.1374   -0.2258    0.0000 H       1  UNL1        0.0271
     23 H           5.6194    0.3786    0.0000 H       1  UNL1        0.0271
     24 H           5.7805    1.0846    0.0000 H       1  UNL1        0.0268
     25 H           5.6085    1.8383    0.0000 H       1  UNL1        0.0268
     26 H           2.1105    0.1305    0.0000 H       1  UNL1        0.0271
     27 H           2.0006   -0.6917    0.0000 H       1  UNL1        0.0271
     28 H           2.4105   -1.4519    0.0000 H       1  UNL1        0.0269
     29 H           3.1579   -1.8118    0.0000 H       1  UNL1        0.0269
     30 H           5.2512   -1.9826    0.0000 H       1  UNL1        0.0560
     31 H           5.0290   -1.2172    0.0000 H       1  UNL1        0.0560
     32 H           3.1214    3.2110    0.0000 H       1  UNL1        0.0238
     33 H           2.2599    3.0480    0.0000 H       1  UNL1        0.0238
     34 H           2.4229    2.1864    0.0000 H       1  UNL1        0.0238
     35 H           4.2914    3.0863    0.0000 H       1  UNL1        0.0238
     36 H           3.7195    3.7509    0.0000 H       1  UNL1        0.0238
     37 H           3.0549    3.1789    0.0000 H       1  UNL1        0.0238
     38 H           1.8172    2.1685    0.0000 H       1  UNL1        0.0535
     39 H           1.5783    1.1216    0.0000 H       1  UNL1        0.0535
     40 H           4.8926   -3.1326    0.0000 H       1  UNL1        0.2094
@<TRIPOS>BOND
     1     1    13    1
     2     1    40    1
     3     2     3    1
     4     2     5    1
     5     2     6    1
     6     2     7    1
     7     3    10    1
     8     3    11    1
     9     3    17    1
    10     4     5    1
    11     4     8    1
    12     4     9    1
    13     4    18    1
    14     5    19    1
    15     5    20    1
    16     6    12    1
    17     6    13    1
    18     6    21    1
    19     7     9    1
    20     7    22    1
    21     7    23    1
    22     8    11    1
    23     8    14    1
    24     8    15    1
    25     9    24    1
    26     9    25    1
    27    10    12    1
    28    10    26    1
    29    10    27    1
    30    11    16    2
    31    12    28    1
    32    12    29    1
    33    13    30    1
    34    13    31    1
    35    14    32    1
    36    14    33    1
    37    14    34    1
    38    15    35    1
    39    15    36    1
    40    15    37    1
    41    16    38    1
    42    16    39    1
