@<TRIPOS>MOLECULE
IMPHY016511
 26 26 0 0 0
SMALL
GASTEIGER

@<TRIPOS>ATOM
      1 O           2.8660   -0.7500    0.0000 O.3     1  UNL1       -0.4808
      2 O           4.5981    1.2500    0.0000 O.3     1  UNL1       -0.4581
      3 O           2.8660    1.2500    0.0000 O.2     1  UNL1       -0.2470
      4 C           2.8660   -1.7500    0.0000 C.ar    1  UNL1        0.1213
      5 C           3.7320   -0.2500    0.0000 C.3     1  UNL1        0.1859
      6 C           2.0000   -2.2500    0.0000 C.ar    1  UNL1       -0.0199
      7 C           3.7320   -2.2500    0.0000 C.ar    1  UNL1       -0.0199
      8 C           2.0000   -3.2500    0.0000 C.ar    1  UNL1       -0.0583
      9 C           3.7320   -3.2500    0.0000 C.ar    1  UNL1       -0.0583
     10 C           3.7320    0.7500    0.0000 C.2     1  UNL1        0.3454
     11 C           2.8660   -3.7500    0.0000 C.ar    1  UNL1       -0.0615
     12 C           4.5981    2.2500    0.0000 C.3     1  UNL1        0.1106
     13 C           5.4641    2.7500    0.0000 C.2     1  UNL1       -0.0541
     14 C           5.4641    3.7500    0.0000 C.2     1  UNL1       -0.0995
     15 H           3.9441   -0.8326    0.0000 H       1  UNL1        0.0815
     16 H           4.3426   -0.1423    0.0000 H       1  UNL1        0.0815
     17 H           1.4631   -1.9400    0.0000 H       1  UNL1        0.0654
     18 H           4.2690   -1.9400    0.0000 H       1  UNL1        0.0654
     19 H           1.4631   -3.5600    0.0000 H       1  UNL1        0.0619
     20 H           4.2690   -3.5600    0.0000 H       1  UNL1        0.0619
     21 H           2.8660   -4.3700    0.0000 H       1  UNL1        0.0618
     22 H           4.3860    2.8326    0.0000 H       1  UNL1        0.0743
     23 H           3.9875    2.1423    0.0000 H       1  UNL1        0.0743
     24 H           6.0010    2.4400    0.0000 H       1  UNL1        0.0600
     25 H           6.0010    4.0600    0.0000 H       1  UNL1        0.0533
     26 H           4.9272    4.0600    0.0000 H       1  UNL1        0.0533
@<TRIPOS>BOND
     1     1     4    1
     2     1     5    1
     3     2    10    1
     4     2    12    1
     5     3    10    2
     6     4     6   ar
     7     4     7   ar
     8     5    10    1
     9     5    15    1
    10     5    16    1
    11     6     8   ar
    12     6    17    1
    13     7     9   ar
    14     7    18    1
    15     8    11   ar
    16     8    19    1
    17     9    11   ar
    18     9    20    1
    19    11    21    1
    20    12    13    1
    21    12    22    1
    22    12    23    1
    23    13    14    2
    24    13    24    1
    25    14    25    1
    26    14    26    1
