@<TRIPOS>MOLECULE
IMPHY010376
 60 63 0 0 0
SMALL
GASTEIGER

@<TRIPOS>ATOM
      1 O           7.9288   -1.4763    0.0000 O.3     1  UNL1       -0.3876
      2 O           7.0628    2.0237    0.0000 O.3     1  UNL1       -0.3886
      3 O           5.3307    1.0237    0.0000 O.3     1  UNL1       -0.3889
      4 O          10.1642    1.9852    0.0000 O.3     1  UNL1       -0.3918
      5 O           2.5357   -2.5286    0.0000 O.3     1  UNL1       -0.3915
      6 C           7.9288    0.5237    0.0000 C.3     1  UNL1        0.0304
      7 C           7.9288   -0.4763    0.0000 C.3     1  UNL1        0.0777
      8 C           7.0628   -0.9763    0.0000 C.3     1  UNL1       -0.0021
      9 C           6.1968   -0.4763    0.0000 C.3     1  UNL1        0.0023
     10 C           8.8750    0.8284    0.0000 C.3     1  UNL1       -0.0047
     11 C           7.0628    1.0237    0.0000 C.3     1  UNL1        0.0896
     12 C           5.2868   -0.9832    0.0000 C.3     1  UNL1       -0.0053
     13 C           6.1968    0.5237    0.0000 C.3     1  UNL1        0.0856
     14 C           8.8750   -0.7810    0.0000 C.3     1  UNL1       -0.0228
     15 C           9.4586    0.0237    0.0000 C.3     1  UNL1       -0.0446
     16 C           7.0789   -2.0178    0.0000 C.3     1  UNL1       -0.0287
     17 C           7.9288    1.5237    0.0000 C.3     1  UNL1       -0.0541
     18 C           5.2787   -2.0248    0.0000 C.2     1  UNL1       -0.0648
     19 C           4.3599   -0.4191    0.0000 C.3     1  UNL1       -0.0412
     20 C           9.1857    1.7789    0.0000 C.3     1  UNL1        0.0559
     21 C           6.1808   -2.5456    0.0000 C.2     1  UNL1       -0.0838
     22 C           5.2945    0.0168    0.0000 C.3     1  UNL1       -0.0555
     23 C           4.3433   -2.5745    0.0000 C.3     1  UNL1       -0.0051
     24 C           3.4120   -0.9470    0.0000 C.3     1  UNL1       -0.0258
     25 C           3.4037   -2.0320    0.0000 C.3     1  UNL1        0.0590
     26 C           8.5179    2.5232    0.0000 C.3     1  UNL1       -0.0387
     27 H           7.8022   -1.3956    0.0000 H       1  UNL1        0.0335
     28 H           6.9329   -0.0513    0.0000 H       1  UNL1        0.0339
     29 H           9.7148    0.9603    0.0000 H       1  UNL1        0.0333
     30 H           6.5259    1.3337    0.0000 H       1  UNL1        0.0626
     31 H           5.6598    0.2137    0.0000 H       1  UNL1        0.0622
     32 H           8.6240   -1.3480    0.0000 H       1  UNL1        0.0293
     33 H           9.4124   -1.0903    0.0000 H       1  UNL1        0.0293
     34 H           9.9195   -0.3910    0.0000 H       1  UNL1        0.0270
     35 H           9.9195    0.4384    0.0000 H       1  UNL1        0.0270
     36 H           7.2969   -2.5982    0.0000 H       1  UNL1        0.0311
     37 H           7.6880   -1.9023    0.0000 H       1  UNL1        0.0311
     38 H           8.5488    1.5237    0.0000 H       1  UNL1        0.0237
     39 H           7.9288    2.1437    0.0000 H       1  UNL1        0.0237
     40 H           7.3088    1.5237    0.0000 H       1  UNL1        0.0237
     41 H           4.7681    0.0476    0.0000 H       1  UNL1        0.0274
     42 H           3.9700    0.0630    0.0000 H       1  UNL1        0.0274
     43 H           9.3783    2.3683    0.0000 H       1  UNL1        0.0593
     44 H           6.1832   -3.1656    0.0000 H       1  UNL1        0.0572
     45 H           8.4658   -1.7863    0.0000 H       1  UNL1        0.2102
     46 H           5.9145    0.0120    0.0000 H       1  UNL1        0.0238
     47 H           5.2993    0.6368    0.0000 H       1  UNL1        0.0238
     48 H           4.6745    0.0216    0.0000 H       1  UNL1        0.0238
     49 H           3.9460   -3.0504    0.0000 H       1  UNL1        0.0335
     50 H           4.7443   -3.0474    0.0000 H       1  UNL1        0.0335
     51 H           3.2075   -0.3617    0.0000 H       1  UNL1        0.0290
     52 H           2.8004   -1.0484    0.0000 H       1  UNL1        0.0290
     53 H           6.5259    2.3337    0.0000 H       1  UNL1        0.2099
     54 H           2.8686   -1.7189    0.0000 H       1  UNL1        0.0596
     55 H           5.3307    1.6437    0.0000 H       1  UNL1        0.2099
     56 H           8.9793    2.9373    0.0000 H       1  UNL1        0.0255
     57 H           8.1038    2.9847    0.0000 H       1  UNL1        0.0255
     58 H           8.0564    2.1092    0.0000 H       1  UNL1        0.0255
     59 H          10.3568    2.5745    0.0000 H       1  UNL1        0.2098
     60 H           2.0000   -2.2166    0.0000 H       1  UNL1        0.2098
@<TRIPOS>BOND
     1     7     1    1
     2     1    45    1
     3    11     2    1
     4     2    53    1
     5    13     3    1
     6     3    55    1
     7    20     4    1
     8     4    59    1
     9    25     5    1
    10     5    60    1
    11     6     7    1
    12     6    10    1
    13     6    11    1
    14     6    17    1
    15     7     8    1
    16     7    14    1
    17     8     9    1
    18     8    16    1
    19     8    27    1
    20     9    12    1
    21     9    13    1
    22     9    28    1
    23    10    15    1
    24    10    20    1
    25    10    29    1
    26    11    13    1
    27    11    30    1
    28    12    18    1
    29    12    19    1
    30    12    22    1
    31    13    31    1
    32    14    15    1
    33    14    32    1
    34    14    33    1
    35    15    34    1
    36    15    35    1
    37    16    21    1
    38    16    36    1
    39    16    37    1
    40    17    38    1
    41    17    39    1
    42    17    40    1
    43    18    21    2
    44    18    23    1
    45    19    24    1
    46    19    41    1
    47    19    42    1
    48    20    26    1
    49    20    43    1
    50    21    44    1
    51    22    46    1
    52    22    47    1
    53    22    48    1
    54    23    25    1
    55    23    49    1
    56    23    50    1
    57    24    25    1
    58    24    51    1
    59    24    52    1
    60    25    54    1
    61    26    56    1
    62    26    57    1
    63    26    58    1
