@<TRIPOS>MOLECULE
IMPHY012853
 78 81 0 0 0
SMALL
GASTEIGER

@<TRIPOS>ATOM
      1 N           3.3801   -4.6330    0.0000 N.3     1  UNL1       -0.3054
      2 N           5.0822    4.5619    0.0000 N.3     1  UNL1       -0.3049
      3 C           4.1519   -1.3303    0.0000 C.3     1  UNL1       -0.0193
      4 C           3.2958   -1.9236    0.0000 C.3     1  UNL1       -0.0185
      5 C           3.5964   -2.9145    0.0000 C.3     1  UNL1       -0.0195
      6 C           4.0580   -0.2929    0.0000 C.3     1  UNL1       -0.0102
      7 C           4.9742   -1.9595    0.0000 C.3     1  UNL1       -0.0462
      8 C           4.6316   -2.9366    0.0000 C.3     1  UNL1       -0.0477
      9 C           2.3573   -1.4717    0.0000 C.3     1  UNL1       -0.0280
     10 C           4.9738   -0.7606    0.0000 C.3     1  UNL1       -0.0585
     11 C           4.9590    0.1410    0.0000 C.3     1  UNL1       -0.0451
     12 C           3.1571    0.1410    0.0000 C.2     1  UNL1       -0.0477
     13 C           2.9922   -3.7113    0.0000 C.3     1  UNL1        0.0104
     14 C           2.4739   -2.4933    0.0000 C.3     1  UNL1       -0.0585
     15 C           2.2875   -0.4324    0.0000 C.2     1  UNL1       -0.0800
     16 C           4.5580    1.8978    0.0000 C.3     1  UNL1       -0.0130
     17 C           5.1815    1.1160    0.0000 C.3     1  UNL1       -0.0454
     18 C           5.0927    2.7917    0.0000 C.3     1  UNL1       -0.0128
     19 C           3.5580    1.8978    0.0000 C.2     1  UNL1       -0.0656
     20 C           2.9346    1.1160    0.0000 C.2     1  UNL1       -0.0591
     21 C           4.5789    3.6978    0.0000 C.3     1  UNL1        0.0158
     22 C           2.0000   -3.5865    0.0000 C.3     1  UNL1       -0.0492
     23 C           3.0234    2.7917    0.0000 C.3     1  UNL1       -0.0297
     24 C           3.5372    3.6978    0.0000 C.3     1  UNL1       -0.0331
     25 C           5.9644    3.2817    0.0000 C.3     1  UNL1       -0.0578
     26 C           5.9529    2.2817    0.0000 C.3     1  UNL1       -0.0578
     27 C           2.7759   -5.4298    0.0000 C.3     1  UNL1       -0.0128
     28 C           4.3723   -4.7579    0.0000 C.3     1  UNL1       -0.0128
     29 C           4.5855    5.4298    0.0000 C.3     1  UNL1       -0.0128
     30 C           6.0822    4.5580    0.0000 C.3     1  UNL1       -0.0128
     31 H           4.1100   -2.2372    0.0000 H       1  UNL1        0.0321
     32 H           4.7974   -0.7122    0.0000 H       1  UNL1        0.0354
     33 H           5.5345   -2.2250    0.0000 H       1  UNL1        0.0271
     34 H           5.2972   -1.4302    0.0000 H       1  UNL1        0.0271
     35 H           4.5533   -3.5517    0.0000 H       1  UNL1        0.0269
     36 H           5.2350   -3.0791    0.0000 H       1  UNL1        0.0269
     37 H           1.7407   -1.4068    0.0000 H       1  UNL1        0.0313
     38 H           2.1879   -2.0681    0.0000 H       1  UNL1        0.0313
     39 H           5.3270   -1.2701    0.0000 H       1  UNL1        0.0235
     40 H           5.4833   -0.4074    0.0000 H       1  UNL1        0.0235
     41 H           4.6206   -0.2510    0.0000 H       1  UNL1        0.0235
     42 H           5.0970   -0.4634    0.0000 H       1  UNL1        0.0271
     43 H           5.5790    0.1410    0.0000 H       1  UNL1        0.0271
     44 H           3.6073   -3.7888    0.0000 H       1  UNL1        0.0462
     45 H           2.1207   -1.9838    0.0000 H       1  UNL1        0.0235
     46 H           1.9644   -2.8465    0.0000 H       1  UNL1        0.0235
     47 H           2.8271   -3.0029    0.0000 H       1  UNL1        0.0235
     48 H           1.7320   -0.1570    0.0000 H       1  UNL1        0.0575
     49 H           5.4061    1.9548    0.0000 H       1  UNL1        0.0351
     50 H           5.7401    0.8469    0.0000 H       1  UNL1        0.0271
     51 H           5.5681    1.6007    0.0000 H       1  UNL1        0.0271
     52 H           2.3301    1.2539    0.0000 H       1  UNL1        0.0620
     53 H           5.1988    3.6942    0.0000 H       1  UNL1        0.0468
     54 H           2.0774   -2.9713    0.0000 H       1  UNL1        0.0245
     55 H           1.3848   -3.5090    0.0000 H       1  UNL1        0.0245
     56 H           1.9226   -4.2016    0.0000 H       1  UNL1        0.0245
     57 H           2.5444    3.1853    0.0000 H       1  UNL1        0.0311
     58 H           2.5536    2.3871    0.0000 H       1  UNL1        0.0311
     59 H           3.6433    4.3086    0.0000 H       1  UNL1        0.0284
     60 H           2.9535    3.9068    0.0000 H       1  UNL1        0.0284
     61 H           6.2682    2.7412    0.0000 H       1  UNL1        0.0236
     62 H           6.5049    3.5854    0.0000 H       1  UNL1        0.0236
     63 H           5.6607    3.8222    0.0000 H       1  UNL1        0.0236
     64 H           5.6367    1.7484    0.0000 H       1  UNL1        0.0236
     65 H           6.4862    1.9656    0.0000 H       1  UNL1        0.0236
     66 H           6.2691    2.8150    0.0000 H       1  UNL1        0.0236
     67 H           2.2819   -5.0552    0.0000 H       1  UNL1        0.0391
     68 H           2.4013   -5.9238    0.0000 H       1  UNL1        0.0391
     69 H           3.2699   -5.8044    0.0000 H       1  UNL1        0.0391
     70 H           4.2949   -5.3730    0.0000 H       1  UNL1        0.0391
     71 H           4.9874   -4.8353    0.0000 H       1  UNL1        0.0391
     72 H           4.4497   -4.1427    0.0000 H       1  UNL1        0.0391
     73 H           5.1237    5.7378    0.0000 H       1  UNL1        0.0391
     74 H           4.2776    5.9680    0.0000 H       1  UNL1        0.0391
     75 H           4.0474    5.1219    0.0000 H       1  UNL1        0.0391
     76 H           6.0798    3.9380    0.0000 H       1  UNL1        0.0391
     77 H           6.7022    4.5556    0.0000 H       1  UNL1        0.0391
     78 H           6.0846    5.1780    0.0000 H       1  UNL1        0.0391
@<TRIPOS>BOND
     1    13     1    1
     2     1    27    1
     3     1    28    1
     4    21     2    1
     5     2    29    1
     6     2    30    1
     7     3     4    1
     8     3     6    1
     9     3     7    1
    10     3    10    1
    11     4     5    1
    12     4     9    1
    13     4    14    1
    14     5     8    1
    15     5    13    1
    16     5    31    1
    17     6    11    1
    18     6    12    1
    19     6    32    1
    20     7     8    1
    21     7    33    1
    22     7    34    1
    23     8    35    1
    24     8    36    1
    25     9    15    1
    26     9    37    1
    27     9    38    1
    28    10    39    1
    29    10    40    1
    30    10    41    1
    31    11    17    1
    32    11    42    1
    33    11    43    1
    34    12    15    2
    35    12    20    1
    36    13    22    1
    37    13    44    1
    38    14    45    1
    39    14    46    1
    40    14    47    1
    41    15    48    1
    42    16    17    1
    43    16    18    1
    44    16    19    1
    45    16    49    1
    46    17    50    1
    47    17    51    1
    48    18    21    1
    49    18    25    1
    50    18    26    1
    51    19    20    2
    52    19    23    1
    53    20    52    1
    54    21    24    1
    55    21    53    1
    56    22    54    1
    57    22    55    1
    58    22    56    1
    59    23    24    1
    60    23    57    1
    61    23    58    1
    62    24    59    1
    63    24    60    1
    64    25    61    1
    65    25    62    1
    66    25    63    1
    67    26    64    1
    68    26    65    1
    69    26    66    1
    70    27    67    1
    71    27    68    1
    72    27    69    1
    73    28    70    1
    74    28    71    1
    75    28    72    1
    76    29    73    1
    77    29    74    1
    78    29    75    1
    79    30    76    1
    80    30    77    1
    81    30    78    1
