@<TRIPOS>MOLECULE
IMPHY008355
 121 125 0 0 0
SMALL
GASTEIGER

@<TRIPOS>ATOM
      1 O           5.1350   -3.5000    0.0000 O.3     1  UNL1       -0.3404
      2 O          16.5632    0.0981    0.0000 O.3     1  UNL1       -0.3404
      3 O           6.8671   -3.5000    0.0000 O.3     1  UNL1       -0.3061
      4 O          15.0632   -0.7679    0.0000 O.3     1  UNL1       -0.3061
      5 O           5.1350   -6.5000    0.0000 O.3     1  UNL1       -0.3864
      6 O           3.4030   -5.5000    0.0000 O.3     1  UNL1       -0.3865
      7 O          18.0632   -2.5000    0.0000 O.3     1  UNL1       -0.3864
      8 O           6.8671   -5.5000    0.0000 O.3     1  UNL1       -0.3841
      9 O          19.0632   -0.7679    0.0000 O.3     1  UNL1       -0.3865
     10 O          16.0632   -2.5000    0.0000 O.3     1  UNL1       -0.3841
     11 O           6.0010   -2.0000    0.0000 O.2     1  UNL1       -0.4666
     12 O          15.0632   -2.5000    0.0000 O.2     1  UNL1       -0.4666
     13 O           2.5369   -4.0000    0.0000 O.3     1  UNL1       -0.3924
     14 O          19.0632    0.9641    0.0000 O.3     1  UNL1       -0.3924
     15 O          10.3312   -2.5000    0.0000 O.3     1  UNL1       -0.4604
     16 O           7.7331    1.0000    0.0000 O.3     1  UNL1       -0.4643
     17 O           5.1350   -0.5000    0.0000 O.3     1  UNL1       -0.4646
     18 O          13.5632   -5.0981    0.0000 O.3     1  UNL1       -0.4646
     19 O          11.1972   -1.0000    0.0000 O.2     1  UNL1       -0.2508
     20 O          13.0632    0.9641    0.0000 O.3     1  UNL1       -0.3910
     21 O           6.0010    1.0000    0.0000 O.2     1  UNL1       -0.2452
     22 O           9.4651    1.0000    0.0000 O.2     1  UNL1       -0.2508
     23 O          12.0632   -4.2320    0.0000 O.2     1  UNL1       -0.2452
     24 O           5.1350    5.5000    0.0000 O.3     1  UNL1       -0.5033
     25 O           6.8671    6.5000    0.0000 O.3     1  UNL1       -0.5033
     26 C           5.1350   -5.5000    0.0000 C.3     1  UNL1        0.1141
     27 C           4.2690   -5.0000    0.0000 C.3     1  UNL1        0.1119
     28 C          17.5632   -1.6340    0.0000 C.3     1  UNL1        0.1141
     29 C           6.0010   -5.0000    0.0000 C.3     1  UNL1        0.1343
     30 C          18.0632   -0.7679    0.0000 C.3     1  UNL1        0.1119
     31 C          16.5632   -1.6340    0.0000 C.3     1  UNL1        0.1343
     32 C           4.2690   -4.0000    0.0000 C.3     1  UNL1        0.1130
     33 C          17.5632    0.0981    0.0000 C.3     1  UNL1        0.1130
     34 C           6.0010   -4.0000    0.0000 C.3     1  UNL1        0.1921
     35 C          16.0632   -0.7679    0.0000 C.3     1  UNL1        0.1921
     36 C           3.4030   -3.5000    0.0000 C.3     1  UNL1        0.0730
     37 C          18.0632    0.9641    0.0000 C.3     1  UNL1        0.0730
     38 C           6.8671   -2.5000    0.0000 C.3     1  UNL1        0.2267
     39 C          14.5632   -1.6340    0.0000 C.3     1  UNL1        0.2266
     40 C           7.7331   -2.0000    0.0000 C.2     1  UNL1        0.0053
     41 C           7.7331   -1.0000    0.0000 C.3     1  UNL1        0.0308
     42 C          13.0632   -2.5000    0.0000 C.3     1  UNL1        0.0308
     43 C          13.5632   -1.6340    0.0000 C.2     1  UNL1        0.0043
     44 C          12.0632   -2.5000    0.0000 C.3     1  UNL1        0.0559
     45 C           6.8671   -0.5000    0.0000 C.2     1  UNL1        0.0785
     46 C          13.5632   -3.3660    0.0000 C.2     1  UNL1        0.0785
     47 C           8.5991   -0.5000    0.0000 C.3     1  UNL1        0.0559
     48 C           8.5991   -2.5000    0.0000 C.2     1  UNL1       -0.0413
     49 C           6.0010   -1.0000    0.0000 C.2     1  UNL1        0.0988
     50 C          13.0632   -0.7679    0.0000 C.2     1  UNL1       -0.0533
     51 C          14.5632   -3.3660    0.0000 C.2     1  UNL1        0.0988
     52 C           9.4651   -2.0000    0.0000 C.3     1  UNL1        0.1112
     53 C          11.1972   -2.0000    0.0000 C.2     1  UNL1        0.3083
     54 C           6.0010   -0.0000    0.0000 C.2     1  UNL1        0.3384
     55 C           8.5991    0.5000    0.0000 C.2     1  UNL1        0.3080
     56 C          13.0632   -4.2320    0.0000 C.2     1  UNL1        0.3384
     57 C          13.5632    0.0981    0.0000 C.3     1  UNL1        0.0628
     58 C           7.7331    2.0000    0.0000 C.3     1  UNL1        0.0964
     59 C           6.8671    2.5000    0.0000 C.3     1  UNL1        0.0069
     60 C           4.2690   -0.0000    0.0000 C.3     1  UNL1        0.0820
     61 C          13.0632   -5.9641    0.0000 C.3     1  UNL1        0.0820
     62 C           6.8671    3.5000    0.0000 C.ar    1  UNL1       -0.0405
     63 C           6.0010    4.0000    0.0000 C.ar    1  UNL1       -0.0132
     64 C           7.7331    4.0000    0.0000 C.ar    1  UNL1       -0.0548
     65 C           6.0010    5.0000    0.0000 C.ar    1  UNL1        0.1585
     66 C           7.7331    5.0000    0.0000 C.ar    1  UNL1       -0.0163
     67 C           6.8671    5.5000    0.0000 C.ar    1  UNL1        0.1582
     68 H           5.6720   -5.8100    0.0000 H       1  UNL1        0.0648
     69 H           4.2690   -5.6200    0.0000 H       1  UNL1        0.0647
     70 H          17.2532   -2.1709    0.0000 H       1  UNL1        0.0648
     71 H           6.5380   -4.6900    0.0000 H       1  UNL1        0.0671
     72 H          18.3732   -1.3049    0.0000 H       1  UNL1        0.0647
     73 H          15.9432   -1.6340    0.0000 H       1  UNL1        0.0671
     74 H           4.2690   -3.3800    0.0000 H       1  UNL1        0.0647
     75 H          17.2532    0.6350    0.0000 H       1  UNL1        0.0647
     76 H           6.0010   -3.3800    0.0000 H       1  UNL1        0.0939
     77 H          15.7532   -0.2310    0.0000 H       1  UNL1        0.0939
     78 H           3.8015   -3.0250    0.0000 H       1  UNL1        0.0584
     79 H           3.0044   -3.0250    0.0000 H       1  UNL1        0.0584
     80 H          18.1709    1.5747    0.0000 H       1  UNL1        0.0584
     81 H          17.4806    1.1762    0.0000 H       1  UNL1        0.0584
     82 H           7.4040   -2.8100    0.0000 H       1  UNL1        0.1109
     83 H          14.2532   -1.0970    0.0000 H       1  UNL1        0.1109
     84 H           8.2700   -1.3100    0.0000 H       1  UNL1        0.0404
     85 H          12.7532   -3.0369    0.0000 H       1  UNL1        0.0404
     86 H           4.5981   -6.8100    0.0000 H       1  UNL1        0.2100
     87 H           3.4030   -6.1200    0.0000 H       1  UNL1        0.2100
     88 H          18.6832   -2.5000    0.0000 H       1  UNL1        0.2100
     89 H           6.8671   -6.1200    0.0000 H       1  UNL1        0.2101
     90 H          19.3732   -1.3049    0.0000 H       1  UNL1        0.2100
     91 H          16.3732   -3.0369    0.0000 H       1  UNL1        0.2101
     92 H          11.5883   -2.8985    0.0000 H       1  UNL1        0.0387
     93 H          12.2237   -1.9011    0.0000 H       1  UNL1        0.0387
     94 H           8.8112   -1.0826    0.0000 H       1  UNL1        0.0387
     95 H           9.2097   -0.3923    0.0000 H       1  UNL1        0.0387
     96 H           8.5991   -3.1200    0.0000 H       1  UNL1        0.0607
     97 H           5.4641   -0.6900    0.0000 H       1  UNL1        0.1030
     98 H          12.4432   -0.7679    0.0000 H       1  UNL1        0.0596
     99 H          14.8732   -3.9030    0.0000 H       1  UNL1        0.1030
    100 H           2.0000   -3.6900    0.0000 H       1  UNL1        0.2095
    101 H          19.3732    1.5010    0.0000 H       1  UNL1        0.2095
    102 H           9.8637   -1.5250    0.0000 H       1  UNL1        0.0743
    103 H           9.0666   -1.5250    0.0000 H       1  UNL1        0.0743
    104 H          14.0382   -0.3005    0.0000 H       1  UNL1        0.0601
    105 H          14.0382    0.4966    0.0000 H       1  UNL1        0.0601
    106 H           8.3437    1.8923    0.0000 H       1  UNL1        0.0701
    107 H           7.9451    2.5826    0.0000 H       1  UNL1        0.0701
    108 H          13.3732    1.5010    0.0000 H       1  UNL1        0.2098
    109 H           6.2565    2.6077    0.0000 H       1  UNL1        0.0346
    110 H           6.6550    1.9174    0.0000 H       1  UNL1        0.0346
    111 H           4.5790    0.5369    0.0000 H       1  UNL1        0.0661
    112 H           3.7320    0.3100    0.0000 H       1  UNL1        0.0661
    113 H           3.9590   -0.5369    0.0000 H       1  UNL1        0.0661
    114 H          12.5263   -5.6541    0.0000 H       1  UNL1        0.0661
    115 H          12.7532   -6.5010    0.0000 H       1  UNL1        0.0661
    116 H          13.6002   -6.2741    0.0000 H       1  UNL1        0.0661
    117 H           5.4641    3.6900    0.0000 H       1  UNL1        0.0658
    118 H           8.2700    3.6900    0.0000 H       1  UNL1        0.0621
    119 H           8.2700    5.3100    0.0000 H       1  UNL1        0.0655
    120 H           5.1350    6.1200    0.0000 H       1  UNL1        0.2923
    121 H           7.4040    6.8100    0.0000 H       1  UNL1        0.2923
@<TRIPOS>BOND
     1     1    32    1
     2     1    34    1
     3     2    33    1
     4     2    35    1
     5    34     3    1
     6    38     3    1
     7    35     4    1
     8    39     4    1
     9    26     5    1
    10     5    86    1
    11    27     6    1
    12     6    87    1
    13    28     7    1
    14     7    88    1
    15    29     8    1
    16     8    89    1
    17    30     9    1
    18     9    90    1
    19    31    10    1
    20    10    91    1
    21    11    38    1
    22    11    49    1
    23    12    39    1
    24    12    51    1
    25    13    36    1
    26    13   100    1
    27    14    37    1
    28    14   101    1
    29    15    52    1
    30    15    53    1
    31    16    55    1
    32    16    58    1
    33    17    54    1
    34    17    60    1
    35    18    56    1
    36    18    61    1
    37    19    53    2
    38    20    57    1
    39    20   108    1
    40    21    54    2
    41    22    55    2
    42    23    56    2
    43    24    65    1
    44    24   120    1
    45    25    67    1
    46    25   121    1
    47    26    27    1
    48    26    29    1
    49    26    68    1
    50    27    32    1
    51    27    69    1
    52    28    30    1
    53    28    31    1
    54    28    70    1
    55    29    34    1
    56    29    71    1
    57    30    33    1
    58    30    72    1
    59    31    35    1
    60    31    73    1
    61    32    36    1
    62    32    74    1
    63    33    37    1
    64    33    75    1
    65    34    76    1
    66    35    77    1
    67    36    78    1
    68    36    79    1
    69    37    80    1
    70    37    81    1
    71    38    40    1
    72    38    82    1
    73    39    43    1
    74    39    83    1
    75    40    41    1
    76    40    48    2
    77    41    45    1
    78    41    47    1
    79    41    84    1
    80    42    43    1
    81    42    44    1
    82    42    46    1
    83    42    85    1
    84    43    50    2
    85    44    53    1
    86    44    92    1
    87    44    93    1
    88    45    49    2
    89    45    54    1
    90    46    51    2
    91    46    56    1
    92    47    55    1
    93    47    94    1
    94    47    95    1
    95    48    52    1
    96    48    96    1
    97    49    97    1
    98    50    57    1
    99    50    98    1
   100    51    99    1
   101    52   102    1
   102    52   103    1
   103    57   104    1
   104    57   105    1
   105    58    59    1
   106    58   106    1
   107    58   107    1
   108    59    62    1
   109    59   109    1
   110    59   110    1
   111    60   111    1
   112    60   112    1
   113    60   113    1
   114    61   114    1
   115    61   115    1
   116    61   116    1
   117    62    63   ar
   118    62    64   ar
   119    63    65   ar
   120    63   117    1
   121    64    66   ar
   122    64   118    1
   123    65    67   ar
   124    66    67   ar
   125    66   119    1
