@<TRIPOS>MOLECULE
IMPHY006344
 32 32 0 0 0
SMALL
GASTEIGER

@<TRIPOS>ATOM
      1 O           3.7320    2.0000    0.0000 O.3     1  UNL1       -0.4604
      2 O           5.4641    2.0000    0.0000 O.2     1  UNL1       -0.2512
      3 C           2.8660   -0.5000    0.0000 C.3     1  UNL1       -0.0133
      4 C           2.0000   -1.0000    0.0000 C.3     1  UNL1       -0.0424
      5 C           3.7320   -1.0000    0.0000 C.3     1  UNL1       -0.0279
      6 C           2.0000   -2.0000    0.0000 C.3     1  UNL1       -0.0315
      7 C           2.8660   -2.5000    0.0000 C.2     1  UNL1       -0.0765
      8 C           2.8660    0.5000    0.0000 C.2     1  UNL1       -0.0363
      9 C           3.7320   -2.0000    0.0000 C.2     1  UNL1       -0.0845
     10 C           3.7320    1.0000    0.0000 C.3     1  UNL1        0.1136
     11 C           2.8660   -3.5000    0.0000 C.3     1  UNL1       -0.0438
     12 C           2.0000    1.0000    0.0000 C.2     1  UNL1       -0.0960
     13 C           4.5981    2.5000    0.0000 C.2     1  UNL1        0.3042
     14 C           4.5981    3.5000    0.0000 C.3     1  UNL1        0.0332
     15 H           3.6022   -0.0750    0.0000 H       1  UNL1        0.0350
     16 H           1.7880   -0.4174    0.0000 H       1  UNL1        0.0274
     17 H           1.3894   -1.1077    0.0000 H       1  UNL1        0.0274
     18 H           4.3426   -1.1077    0.0000 H       1  UNL1        0.0313
     19 H           3.9441   -0.4174    0.0000 H       1  UNL1        0.0313
     20 H           1.3894   -1.8923    0.0000 H       1  UNL1        0.0310
     21 H           1.7880   -2.5826    0.0000 H       1  UNL1        0.0310
     22 H           4.2690   -2.3100    0.0000 H       1  UNL1        0.0572
     23 H           3.9441    0.4174    0.0000 H       1  UNL1        0.0745
     24 H           4.3426    1.1077    0.0000 H       1  UNL1        0.0745
     25 H           2.2460   -3.5000    0.0000 H       1  UNL1        0.0274
     26 H           2.8660   -4.1200    0.0000 H       1  UNL1        0.0274
     27 H           3.4860   -3.5000    0.0000 H       1  UNL1        0.0274
     28 H           2.0000    1.6200    0.0000 H       1  UNL1        0.0536
     29 H           1.4631    0.6900    0.0000 H       1  UNL1        0.0536
     30 H           5.2181    3.5000    0.0000 H       1  UNL1        0.0342
     31 H           4.5981    4.1200    0.0000 H       1  UNL1        0.0342
     32 H           3.9781    3.5000    0.0000 H       1  UNL1        0.0342
@<TRIPOS>BOND
     1     1    10    1
     2     1    13    1
     3     2    13    2
     4     3     4    1
     5     3     5    1
     6     3     8    1
     7     3    15    1
     8     4     6    1
     9     4    16    1
    10     4    17    1
    11     5     9    1
    12     5    18    1
    13     5    19    1
    14     6     7    1
    15     6    20    1
    16     6    21    1
    17     7     9    2
    18     7    11    1
    19     8    10    1
    20     8    12    2
    21     9    22    1
    22    10    23    1
    23    10    24    1
    24    11    25    1
    25    11    26    1
    26    11    27    1
    27    12    28    1
    28    12    29    1
    29    13    14    1
    30    14    30    1
    31    14    31    1
    32    14    32    1
