@<TRIPOS>MOLECULE
IMPHY008562
 44 46 0 0 0
SMALL
GASTEIGER

@<TRIPOS>ATOM
      1 O           9.8744   -1.4597    0.0000 O.3     1  UNL1       -0.4853
      2 O          12.4580   -0.6550    0.0000 O.3     1  UNL1       -0.3855
      3 O           8.0622    1.3450    0.0000 O.3     1  UNL1       -0.5057
      4 O           6.3301    1.3450    0.0000 O.2     1  UNL1       -0.2872
      5 C          10.4580   -0.6550    0.0000 C.3     1  UNL1        0.1323
      6 C          11.4580   -0.6550    0.0000 C.3     1  UNL1        0.0974
      7 C           9.8744    0.1497    0.0000 C.3     1  UNL1        0.0192
      8 C           8.9282   -0.1550    0.0000 C.ar    1  UNL1        0.0399
      9 C           8.9282   -1.1550    0.0000 C.ar    1  UNL1        0.1278
     10 C          11.4580   -1.6550    0.0000 C.3     1  UNL1       -0.0328
     11 C          11.4580    0.3450    0.0000 C.3     1  UNL1       -0.0328
     12 C           8.0622    0.3450    0.0000 C.ar    1  UNL1        0.1344
     13 C           8.0622   -1.6550    0.0000 C.ar    1  UNL1       -0.0187
     14 C           7.1962   -0.1550    0.0000 C.ar    1  UNL1        0.0635
     15 C           7.1962   -1.1550    0.0000 C.ar    1  UNL1       -0.0439
     16 C           6.3301    0.3450    0.0000 C.2     1  UNL1        0.1896
     17 C           5.4641   -0.1550    0.0000 C.2     1  UNL1       -0.0137
     18 C           4.5981    0.3450    0.0000 C.2     1  UNL1       -0.0510
     19 C           3.7320   -0.1550    0.0000 C.ar    1  UNL1       -0.0249
     20 C           2.8660    0.3450    0.0000 C.ar    1  UNL1       -0.0546
     21 C           3.7320   -1.1550    0.0000 C.ar    1  UNL1       -0.0546
     22 C           2.0000   -0.1550    0.0000 C.ar    1  UNL1       -0.0612
     23 C           2.8660   -1.6550    0.0000 C.ar    1  UNL1       -0.0612
     24 C           2.0000   -1.1550    0.0000 C.ar    1  UNL1       -0.0617
     25 H          10.7397   -1.2073    0.0000 H       1  UNL1        0.0765
     26 H          10.4118    0.4590    0.0000 H       1  UNL1        0.0352
     27 H           9.6234    0.7166    0.0000 H       1  UNL1        0.0352
     28 H          10.8380   -1.6550    0.0000 H       1  UNL1        0.0258
     29 H          12.0780    0.3450    0.0000 H       1  UNL1        0.0258
     30 H          11.4580    0.9650    0.0000 H       1  UNL1        0.0258
     31 H          10.8380    0.3450    0.0000 H       1  UNL1        0.0258
     32 H          11.4580   -2.2750    0.0000 H       1  UNL1        0.0258
     33 H          12.0780   -1.6550    0.0000 H       1  UNL1        0.0258
     34 H           8.0622   -2.2750    0.0000 H       1  UNL1        0.0654
     35 H          12.7680   -1.1919    0.0000 H       1  UNL1        0.2103
     36 H           6.6592   -1.4650    0.0000 H       1  UNL1        0.0627
     37 H           8.5991    1.6550    0.0000 H       1  UNL1        0.2922
     38 H           5.4641   -0.7750    0.0000 H       1  UNL1        0.0656
     39 H           4.5981    0.9650    0.0000 H       1  UNL1        0.0625
     40 H           2.8660    0.9650    0.0000 H       1  UNL1        0.0623
     41 H           4.2690   -1.4650    0.0000 H       1  UNL1        0.0623
     42 H           1.4631    0.1550    0.0000 H       1  UNL1        0.0618
     43 H           2.8660   -2.2750    0.0000 H       1  UNL1        0.0618
     44 H           1.4631   -1.4650    0.0000 H       1  UNL1        0.0618
@<TRIPOS>BOND
     1     1     5    1
     2     1     9    1
     3     2     6    1
     4     2    35    1
     5     3    12    1
     6     3    37    1
     7     4    16    2
     8     5     6    1
     9     5     7    1
    10     5    25    1
    11     6    10    1
    12     6    11    1
    13     7     8    1
    14     7    26    1
    15     7    27    1
    16     8     9   ar
    17     8    12   ar
    18     9    13   ar
    19    10    28    1
    20    10    32    1
    21    10    33    1
    22    11    29    1
    23    11    30    1
    24    11    31    1
    25    12    14   ar
    26    13    15   ar
    27    13    34    1
    28    14    15   ar
    29    14    16    1
    30    15    36    1
    31    16    17    1
    32    17    18    2
    33    17    38    1
    34    18    19    1
    35    18    39    1
    36    19    20   ar
    37    19    21   ar
    38    20    22   ar
    39    20    40    1
    40    21    23   ar
    41    21    41    1
    42    22    24   ar
    43    22    42    1
    44    23    24   ar
    45    23    43    1
    46    24    44    1
