@<TRIPOS>MOLECULE
IMPHY006194
 59 61 0 0 0
SMALL
GASTEIGER

@<TRIPOS>ATOM
      1 O           6.0682   -1.9400    0.0000 O.3     1  UNL1       -0.4827
      2 O           6.9343   -3.4400    0.0000 O.3     1  UNL1       -0.5063
      3 O           6.0682    1.0600    0.0000 O.2     1  UNL1       -0.2917
      4 O          10.3984   -3.4400    0.0000 O.3     1  UNL1       -0.5064
      5 O           4.3198    1.0946    0.0000 O.3     1  UNL1       -0.5058
      6 O           2.5381   -1.9642    0.0000 O.3     1  UNL1       -0.5065
      7 C           6.9343   -1.4400    0.0000 C.3     1  UNL1        0.1355
      8 C           6.9343   -0.4400    0.0000 C.3     1  UNL1        0.0521
      9 C           7.8003   -1.9400    0.0000 C.ar    1  UNL1        0.0350
     10 C           6.0682    0.0600    0.0000 C.2     1  UNL1        0.1740
     11 C           5.2022   -0.4400    0.0000 C.ar    1  UNL1        0.1007
     12 C           8.6663   -1.4400    0.0000 C.ar    1  UNL1       -0.0446
     13 C           5.2022   -1.4400    0.0000 C.ar    1  UNL1        0.1389
     14 C           9.5323   -1.9400    0.0000 C.ar    1  UNL1       -0.0016
     15 C           7.8003   -2.9400    0.0000 C.ar    1  UNL1        0.1270
     16 C          10.3984   -1.4400    0.0000 C.3     1  UNL1       -0.0058
     17 C           9.5323   -2.9400    0.0000 C.ar    1  UNL1        0.1238
     18 C           8.6663   -3.4400    0.0000 C.ar    1  UNL1        0.0220
     19 C           4.3083    0.0947    0.0000 C.ar    1  UNL1        0.1343
     20 C           4.3083   -1.9747    0.0000 C.ar    1  UNL1        0.0225
     21 C          10.3984   -0.4400    0.0000 C.2     1  UNL1       -0.0806
     22 C          11.2644    0.0600    0.0000 C.2     1  UNL1       -0.0759
     23 C          11.2644    1.0600    0.0000 C.3     1  UNL1       -0.0286
     24 C           3.4022   -1.4608    0.0000 C.ar    1  UNL1        0.1238
     25 C           3.4022   -0.4192    0.0000 C.ar    1  UNL1        0.0222
     26 C          12.1304    1.5600    0.0000 C.3     1  UNL1       -0.0308
     27 C          12.1304   -0.4400    0.0000 C.3     1  UNL1       -0.0438
     28 C          12.1304    2.5600    0.0000 C.2     1  UNL1       -0.0850
     29 C          12.9965    3.0600    0.0000 C.2     1  UNL1       -0.0796
     30 C          12.9965    4.0600    0.0000 C.3     1  UNL1       -0.0440
     31 C          13.8625    2.5600    0.0000 C.3     1  UNL1       -0.0440
     32 H           6.9343   -2.2900    0.0000 H       1  UNL1        0.0790
     33 H           7.5449   -0.5477    0.0000 H       1  UNL1        0.0385
     34 H           7.1463    0.1426    0.0000 H       1  UNL1        0.0385
     35 H           8.6663   -0.8200    0.0000 H       1  UNL1        0.0627
     36 H          10.6104   -2.0226    0.0000 H       1  UNL1        0.0357
     37 H          11.0090   -1.3323    0.0000 H       1  UNL1        0.0357
     38 H           8.6663   -4.0600    0.0000 H       1  UNL1        0.0691
     39 H           4.3154   -2.5946    0.0000 H       1  UNL1        0.0691
     40 H           9.8614   -0.1300    0.0000 H       1  UNL1        0.0575
     41 H          11.0524    1.6426    0.0000 H       1  UNL1        0.0313
     42 H          10.6538    0.9523    0.0000 H       1  UNL1        0.0313
     43 H           2.8665   -0.1071    0.0000 H       1  UNL1        0.0691
     44 H          12.3425    0.9774    0.0000 H       1  UNL1        0.0310
     45 H          12.7410    1.6677    0.0000 H       1  UNL1        0.0310
     46 H          11.8204   -0.9769    0.0000 H       1  UNL1        0.0274
     47 H          12.6674   -0.7500    0.0000 H       1  UNL1        0.0274
     48 H          12.4404    0.0969    0.0000 H       1  UNL1        0.0274
     49 H           6.9343   -4.0600    0.0000 H       1  UNL1        0.2921
     50 H          11.5935    2.8700    0.0000 H       1  UNL1        0.0572
     51 H          10.3984   -4.0600    0.0000 H       1  UNL1        0.2921
     52 H           3.7865    1.4108    0.0000 H       1  UNL1        0.2922
     53 H           2.0000   -1.6562    0.0000 H       1  UNL1        0.2921
     54 H          13.6165    4.0600    0.0000 H       1  UNL1        0.0274
     55 H          12.9965    4.6800    0.0000 H       1  UNL1        0.0274
     56 H          13.5525    2.0231    0.0000 H       1  UNL1        0.0274
     57 H          14.3994    2.2500    0.0000 H       1  UNL1        0.0274
     58 H          14.1725    3.0969    0.0000 H       1  UNL1        0.0274
     59 H          12.3765    4.0600    0.0000 H       1  UNL1        0.0274
@<TRIPOS>BOND
     1     1     7    1
     2     1    13    1
     3     2    15    1
     4     2    49    1
     5     3    10    2
     6     4    17    1
     7     4    51    1
     8     5    19    1
     9     5    52    1
    10     6    24    1
    11     6    53    1
    12     7     8    1
    13     7     9    1
    14     7    32    1
    15     8    10    1
    16     8    33    1
    17     8    34    1
    18     9    12   ar
    19     9    15   ar
    20    10    11    1
    21    11    13   ar
    22    11    19   ar
    23    12    14   ar
    24    12    35    1
    25    13    20   ar
    26    14    16    1
    27    14    17   ar
    28    15    18   ar
    29    16    21    1
    30    16    36    1
    31    16    37    1
    32    17    18   ar
    33    18    38    1
    34    19    25   ar
    35    20    24   ar
    36    20    39    1
    37    21    22    2
    38    21    40    1
    39    22    23    1
    40    22    27    1
    41    23    26    1
    42    23    41    1
    43    23    42    1
    44    24    25   ar
    45    25    43    1
    46    26    28    1
    47    26    44    1
    48    26    45    1
    49    27    46    1
    50    27    47    1
    51    27    48    1
    52    28    29    2
    53    28    50    1
    54    29    30    1
    55    29    31    1
    56    30    54    1
    57    30    55    1
    58    30    59    1
    59    31    56    1
    60    31    57    1
    61    31    58    1
