@<TRIPOS>MOLECULE
IMPHY007603
 63 65 0 0 0
SMALL
GASTEIGER

@<TRIPOS>ATOM
      1 O           4.4094   -1.3604    0.0000 O.3     1  UNL1       -0.3571
      2 O           4.9613    1.1140    0.0000 O.3     1  UNL1       -0.3774
      3 O           7.9014   -1.3257    0.0000 O.3     1  UNL1       -0.4585
      4 O           5.2816    2.2058    0.0000 O.3     1  UNL1       -0.3911
      5 O           6.1694   -2.3257    0.0000 O.3     1  UNL1       -0.3851
      6 O           3.5492    1.2189    0.0000 O.2     1  UNL1       -0.2941
      7 O           7.0354   -2.8257    0.0000 O.2     1  UNL1       -0.2512
      8 C           6.1694    0.6743    0.0000 C.3     1  UNL1        0.0391
      9 C           7.0354    0.1743    0.0000 C.3     1  UNL1        0.0147
     10 C           5.3033    0.1743    0.0000 C.3     1  UNL1        0.1625
     11 C           7.9454    0.6811    0.0000 C.3     1  UNL1       -0.0278
     12 C           5.3033   -0.8257    0.0000 C.3     1  UNL1        0.1329
     13 C           7.0354   -0.8257    0.0000 C.3     1  UNL1        0.1355
     14 C           6.1533    1.7158    0.0000 C.3     1  UNL1        0.0641
     15 C           6.1694   -1.3257    0.0000 C.3     1  UNL1        0.1240
     16 C           7.9534    1.7227    0.0000 C.3     1  UNL1       -0.0451
     17 C           7.0513    2.2436    0.0000 C.3     1  UNL1       -0.0257
     18 C           5.5266    1.4403    0.0000 C.3     1  UNL1       -0.0537
     19 C           4.4094    0.7090    0.0000 C.2     1  UNL1        0.1712
     20 C           8.9453    0.6696    0.0000 C.3     1  UNL1       -0.0594
     21 C           8.4353   -0.1906    0.0000 C.3     1  UNL1       -0.0594
     22 C           5.3033   -1.8257    0.0000 C.3     1  UNL1       -0.0300
     23 C           3.5033   -0.8465    0.0000 C.3     1  UNL1        0.0922
     24 C           3.5033    0.1951    0.0000 C.3     1  UNL1        0.0413
     25 C           3.0067   -1.7145    0.0000 C.3     1  UNL1       -0.0318
     26 C           2.5033   -0.8504    0.0000 C.2     1  UNL1       -0.0595
     27 C           7.9014   -2.3257    0.0000 C.2     1  UNL1        0.3043
     28 C           2.0000    0.0137    0.0000 C.2     1  UNL1       -0.0999
     29 C           8.7674   -2.8257    0.0000 C.3     1  UNL1        0.0332
     30 H           7.7682   -0.2564    0.0000 H       1  UNL1        0.0350
     31 H           7.0354   -1.4457    0.0000 H       1  UNL1        0.0764
     32 H           6.1473    2.3358    0.0000 H       1  UNL1        0.0600
     33 H           5.6324   -1.6357    0.0000 H       1  UNL1        0.0660
     34 H           8.5634    1.6119    0.0000 H       1  UNL1        0.0271
     35 H           8.1670    2.3048    0.0000 H       1  UNL1        0.0271
     36 H           7.4486    2.7195    0.0000 H       1  UNL1        0.0290
     37 H           6.6504    2.7164    0.0000 H       1  UNL1        0.0290
     38 H           6.0015    1.8389    0.0000 H       1  UNL1        0.0237
     39 H           5.1280    1.9153    0.0000 H       1  UNL1        0.0237
     40 H           5.0516    1.0418    0.0000 H       1  UNL1        0.0237
     41 H           8.9382    0.0496    0.0000 H       1  UNL1        0.0235
     42 H           9.5653    0.6624    0.0000 H       1  UNL1        0.0235
     43 H           8.9525    1.2895    0.0000 H       1  UNL1        0.0235
     44 H           7.8949   -0.4944    0.0000 H       1  UNL1        0.0235
     45 H           8.7391   -0.7311    0.0000 H       1  UNL1        0.0235
     46 H           8.9758    0.1132    0.0000 H       1  UNL1        0.0235
     47 H           4.6833   -1.8257    0.0000 H       1  UNL1        0.0259
     48 H           5.3033   -2.4457    0.0000 H       1  UNL1        0.0259
     49 H           5.9233   -1.8257    0.0000 H       1  UNL1        0.0259
     50 H           3.2943    0.7788    0.0000 H       1  UNL1        0.0374
     51 H           2.8925    0.0890    0.0000 H       1  UNL1        0.0374
     52 H           4.4864    1.5125    0.0000 H       1  UNL1        0.2109
     53 H           5.2744    2.8257    0.0000 H       1  UNL1        0.2098
     54 H           5.6324   -2.6357    0.0000 H       1  UNL1        0.2101
     55 H           2.4685   -1.4065    0.0000 H       1  UNL1        0.0261
     56 H           2.6987   -2.2526    0.0000 H       1  UNL1        0.0261
     57 H           3.5448   -2.0224    0.0000 H       1  UNL1        0.0261
     58 H           2.1954   -1.3885    0.0000 H       1  UNL1        0.0595
     59 H           2.3079    0.5518    0.0000 H       1  UNL1        0.0533
     60 H           1.3800    0.0113    0.0000 H       1  UNL1        0.0533
     61 H           8.4574   -3.3626    0.0000 H       1  UNL1        0.0342
     62 H           9.3044   -3.1357    0.0000 H       1  UNL1        0.0342
     63 H           9.0774   -2.2888    0.0000 H       1  UNL1        0.0342
@<TRIPOS>BOND
     1     1    12    1
     2     1    23    1
     3    10     2    1
     4     2    52    1
     5    13     3    1
     6     3    27    1
     7    14     4    1
     8     4    53    1
     9    15     5    1
    10     5    54    1
    11     6    19    2
    12     7    27    2
    13     8     9    1
    14     8    10    1
    15     8    14    1
    16     8    18    1
    17     9    11    1
    18     9    13    1
    19     9    30    1
    20    10    12    1
    21    10    19    1
    22    11    16    1
    23    11    20    1
    24    11    21    1
    25    12    15    1
    26    12    22    1
    27    13    15    1
    28    13    31    1
    29    14    17    1
    30    14    32    1
    31    15    33    1
    32    16    17    1
    33    16    34    1
    34    16    35    1
    35    17    36    1
    36    17    37    1
    37    18    38    1
    38    18    39    1
    39    18    40    1
    40    19    24    1
    41    20    41    1
    42    20    42    1
    43    20    43    1
    44    21    44    1
    45    21    45    1
    46    21    46    1
    47    22    47    1
    48    22    48    1
    49    22    49    1
    50    23    24    1
    51    23    25    1
    52    23    26    1
    53    24    50    1
    54    24    51    1
    55    25    55    1
    56    25    56    1
    57    25    57    1
    58    26    28    2
    59    26    58    1
    60    27    29    1
    61    28    59    1
    62    28    60    1
    63    29    61    1
    64    29    62    1
    65    29    63    1
