@<TRIPOS>MOLECULE
IMPHY008573
 56 60 0 0 0
SMALL
GASTEIGER

@<TRIPOS>ATOM
      1 O          10.2694   -1.0609    0.0000 O.3     1  UNL1       -0.4796
      2 O           6.0682   -1.7280    0.0000 O.3     1  UNL1       -0.4828
      3 O           8.5184    1.4387    0.0000 O.3     1  UNL1       -0.3943
      4 O          10.3984   -3.2280    0.0000 O.3     1  UNL1       -0.5033
      5 O           6.0682    1.2720    0.0000 O.2     1  UNL1       -0.2917
      6 O          12.8643    1.5790    0.0000 O.3     1  UNL1       -0.4914
      7 O           4.3198    1.3066    0.0000 O.3     1  UNL1       -0.5058
      8 O          11.8643    3.3110    0.0000 O.3     1  UNL1       -0.5033
      9 O           2.5381   -1.7521    0.0000 O.3     1  UNL1       -0.5065
     10 C           8.8755   -0.2561    0.0000 C.3     1  UNL1        0.0524
     11 C           9.8643   -0.1531    0.0000 C.3     1  UNL1        0.1344
     12 C           8.6663   -1.2280    0.0000 C.ar    1  UNL1        0.0137
     13 C           7.8003   -1.7280    0.0000 C.ar    1  UNL1        0.0004
     14 C           9.5323   -1.7280    0.0000 C.ar    1  UNL1        0.1666
     15 C           6.9343   -1.2280    0.0000 C.3     1  UNL1        0.1325
     16 C           8.2077    0.4882    0.0000 C.3     1  UNL1        0.0548
     17 C          10.3643    0.7129    0.0000 C.ar    1  UNL1       -0.0030
     18 C           6.9343   -0.2280    0.0000 C.3     1  UNL1        0.0520
     19 C           7.8003   -2.7280    0.0000 C.ar    1  UNL1       -0.0511
     20 C           9.5323   -2.7280    0.0000 C.ar    1  UNL1        0.1588
     21 C           8.6663   -3.2280    0.0000 C.ar    1  UNL1       -0.0161
     22 C           6.0682    0.2720    0.0000 C.2     1  UNL1        0.1740
     23 C          11.3643    0.7129    0.0000 C.ar    1  UNL1       -0.0096
     24 C           9.8643    1.5790    0.0000 C.ar    1  UNL1       -0.0514
     25 C           5.2022   -1.2280    0.0000 C.ar    1  UNL1        0.1389
     26 C           5.2022   -0.2280    0.0000 C.ar    1  UNL1        0.1007
     27 C          11.8643    1.5790    0.0000 C.ar    1  UNL1        0.1616
     28 C          10.3643    2.4450    0.0000 C.ar    1  UNL1       -0.0161
     29 C           4.3083    0.3067    0.0000 C.ar    1  UNL1        0.1343
     30 C           4.3083   -1.7626    0.0000 C.ar    1  UNL1        0.0225
     31 C          11.3643    2.4450    0.0000 C.ar    1  UNL1        0.1585
     32 C           3.4022   -1.2488    0.0000 C.ar    1  UNL1        0.1238
     33 C           3.4022   -0.2071    0.0000 C.ar    1  UNL1        0.0222
     34 C          13.3643    0.7129    0.0000 C.3     1  UNL1        0.0790
     35 H           9.0985    0.3224    0.0000 H       1  UNL1        0.0412
     36 H           9.5268    0.3670    0.0000 H       1  UNL1        0.0791
     37 H           6.9343   -2.0780    0.0000 H       1  UNL1        0.0789
     38 H           7.6608    0.7802    0.0000 H       1  UNL1        0.0564
     39 H           7.8251    0.0003    0.0000 H       1  UNL1        0.0564
     40 H           7.5449   -0.3356    0.0000 H       1  UNL1        0.0385
     41 H           7.1463    0.3547    0.0000 H       1  UNL1        0.0385
     42 H           7.2634   -3.0380    0.0000 H       1  UNL1        0.0623
     43 H           8.6663   -3.8480    0.0000 H       1  UNL1        0.0655
     44 H          11.6743    0.1760    0.0000 H       1  UNL1        0.0659
     45 H           9.2443    1.5790    0.0000 H       1  UNL1        0.0623
     46 H           8.1043    1.9002    0.0000 H       1  UNL1        0.2094
     47 H          10.0543    2.9819    0.0000 H       1  UNL1        0.0655
     48 H          10.3984   -3.8480    0.0000 H       1  UNL1        0.2923
     49 H           4.3154   -2.3826    0.0000 H       1  UNL1        0.0691
     50 H           2.8665    0.1049    0.0000 H       1  UNL1        0.0691
     51 H           3.7865    1.6228    0.0000 H       1  UNL1        0.2922
     52 H          11.5543    3.8480    0.0000 H       1  UNL1        0.2923
     53 H          12.8273    0.4029    0.0000 H       1  UNL1        0.0660
     54 H          13.6743    0.1760    0.0000 H       1  UNL1        0.0660
     55 H          13.9012    1.0229    0.0000 H       1  UNL1        0.0660
     56 H           2.0000   -1.4442    0.0000 H       1  UNL1        0.2921
@<TRIPOS>BOND
     1     1    11    1
     2     1    14    1
     3     2    15    1
     4     2    25    1
     5     3    16    1
     6     3    46    1
     7     4    20    1
     8     4    48    1
     9     5    22    2
    10     6    27    1
    11     6    34    1
    12     7    29    1
    13     7    51    1
    14     8    31    1
    15     8    52    1
    16     9    32    1
    17     9    56    1
    18    10    11    1
    19    10    12    1
    20    10    16    1
    21    10    35    1
    22    11    17    1
    23    11    36    1
    24    12    13   ar
    25    12    14   ar
    26    13    15    1
    27    13    19   ar
    28    14    20   ar
    29    15    18    1
    30    15    37    1
    31    16    38    1
    32    16    39    1
    33    17    23   ar
    34    17    24   ar
    35    18    22    1
    36    18    40    1
    37    18    41    1
    38    19    21   ar
    39    19    42    1
    40    20    21   ar
    41    21    43    1
    42    22    26    1
    43    23    27   ar
    44    23    44    1
    45    24    28   ar
    46    24    45    1
    47    25    26   ar
    48    25    30   ar
    49    26    29   ar
    50    27    31   ar
    51    28    31   ar
    52    28    47    1
    53    29    33   ar
    54    30    32   ar
    55    30    49    1
    56    32    33   ar
    57    33    50    1
    58    34    53    1
    59    34    54    1
    60    34    55    1
