@<TRIPOS>MOLECULE
IMPHY017450
 42 42 0 0 0
SMALL
GASTEIGER

@<TRIPOS>ATOM
      1 O           5.5000   -0.8660    0.0000 O.3     1  UNL1       -0.4616
      2 O           5.5000   -2.5981    0.0000 O.2     1  UNL1       -0.2508
      3 C           2.5000    2.5981    0.0000 C.3     1  UNL1       -0.0531
      4 C           3.5000    2.5981    0.0000 C.3     1  UNL1       -0.0531
      5 C           2.0000    1.7320    0.0000 C.3     1  UNL1       -0.0531
      6 C           4.0000    1.7320    0.0000 C.3     1  UNL1       -0.0529
      7 C           2.5000    0.8660    0.0000 C.3     1  UNL1       -0.0531
      8 C           5.0000    1.7320    0.0000 C.3     1  UNL1       -0.0497
      9 C           2.0000   -0.0000    0.0000 C.3     1  UNL1       -0.0530
     10 C           5.5000    0.8660    0.0000 C.3     1  UNL1       -0.0159
     11 C           2.5000   -0.8660    0.0000 C.3     1  UNL1       -0.0526
     12 C           5.0000   -0.0000    0.0000 C.3     1  UNL1        0.1003
     13 C           3.5000   -0.8660    0.0000 C.3     1  UNL1       -0.0430
     14 C           4.0000   -1.7320    0.0000 C.3     1  UNL1        0.0449
     15 C           4.0000   -0.0000    0.0000 C.3     1  UNL1       -0.0277
     16 C           5.0000   -1.7320    0.0000 C.2     1  UNL1        0.3073
     17 H           2.6077    3.2087    0.0000 H       1  UNL1        0.0265
     18 H           1.9174    2.8101    0.0000 H       1  UNL1        0.0265
     19 H           4.0826    2.8101    0.0000 H       1  UNL1        0.0265
     20 H           3.3923    3.2087    0.0000 H       1  UNL1        0.0265
     21 H           1.5250    2.1306    0.0000 H       1  UNL1        0.0265
     22 H           1.5250    1.3335    0.0000 H       1  UNL1        0.0265
     23 H           3.4174    1.5200    0.0000 H       1  UNL1        0.0265
     24 H           4.1077    1.1215    0.0000 H       1  UNL1        0.0265
     25 H           2.9750    0.4675    0.0000 H       1  UNL1        0.0265
     26 H           2.9750    1.2646    0.0000 H       1  UNL1        0.0265
     27 H           5.5826    1.9441    0.0000 H       1  UNL1        0.0266
     28 H           4.8923    2.3426    0.0000 H       1  UNL1        0.0266
     29 H           1.5250    0.3985    0.0000 H       1  UNL1        0.0265
     30 H           1.5250   -0.3985    0.0000 H       1  UNL1        0.0265
     31 H           5.9750    0.4675    0.0000 H       1  UNL1        0.0301
     32 H           5.9750    1.2646    0.0000 H       1  UNL1        0.0301
     33 H           1.9174   -1.0781    0.0000 H       1  UNL1        0.0265
     34 H           2.6077   -1.4766    0.0000 H       1  UNL1        0.0265
     35 H           4.6900   -0.5369    0.0000 H       1  UNL1        0.0731
     36 H           4.0826   -0.6540    0.0000 H       1  UNL1        0.0270
     37 H           3.3923   -0.2554    0.0000 H       1  UNL1        0.0270
     38 H           3.4174   -1.9441    0.0000 H       1  UNL1        0.0377
     39 H           4.1077   -2.3426    0.0000 H       1  UNL1        0.0377
     40 H           4.0000    0.6200    0.0000 H       1  UNL1        0.0265
     41 H           3.3800   -0.0000    0.0000 H       1  UNL1        0.0265
     42 H           4.0000   -0.6200    0.0000 H       1  UNL1        0.0265
@<TRIPOS>BOND
     1     1    12    1
     2     1    16    1
     3     2    16    2
     4     3     4    1
     5     3     5    1
     6     3    17    1
     7     3    18    1
     8     4     6    1
     9     4    19    1
    10     4    20    1
    11     5     7    1
    12     5    21    1
    13     5    22    1
    14     6     8    1
    15     6    23    1
    16     6    24    1
    17     7     9    1
    18     7    25    1
    19     7    26    1
    20     8    10    1
    21     8    27    1
    22     8    28    1
    23     9    11    1
    24     9    29    1
    25     9    30    1
    26    10    12    1
    27    10    31    1
    28    10    32    1
    29    11    13    1
    30    11    33    1
    31    11    34    1
    32    12    15    1
    33    12    35    1
    34    13    14    1
    35    13    36    1
    36    13    37    1
    37    14    16    1
    38    14    38    1
    39    14    39    1
    40    15    40    1
    41    15    41    1
    42    15    42    1
