@<TRIPOS>MOLECULE
IMPHY000623
 18 17 0 0 0
SMALL
GASTEIGER

@<TRIPOS>ATOM
      1 O           4.6350    0.5490    0.0000 O.3     1  UNL1       -0.3772
      2 O           6.8671   -0.3170    0.0000 O.3     1  UNL1       -0.4786
      3 O           6.0010    1.1830    0.0000 O.2     1  UNL1       -0.2478
      4 O           2.5369   -0.8170    0.0000 O.3     1  UNL1       -0.4805
      5 O           3.4030    0.6830    0.0000 O.2     1  UNL1       -0.2509
      6 C           5.1350   -0.3170    0.0000 C.3     1  UNL1        0.1691
      7 C           4.2690   -0.8170    0.0000 C.3     1  UNL1        0.0837
      8 C           5.6350   -1.1830    0.0000 C.3     1  UNL1       -0.0250
      9 C           6.0010    0.1830    0.0000 C.2     1  UNL1        0.3370
     10 C           3.4030   -0.3170    0.0000 C.2     1  UNL1        0.3080
     11 H           3.8705   -1.2919    0.0000 H       1  UNL1        0.0411
     12 H           4.6675   -1.2919    0.0000 H       1  UNL1        0.0411
     13 H           5.0981   -1.4930    0.0000 H       1  UNL1        0.0263
     14 H           5.9450   -1.7200    0.0000 H       1  UNL1        0.0263
     15 H           6.1720   -0.8730    0.0000 H       1  UNL1        0.0263
     16 H           4.0150    0.5490    0.0000 H       1  UNL1        0.2109
     17 H           7.4040   -0.0070    0.0000 H       1  UNL1        0.2951
     18 H           2.0000   -0.5070    0.0000 H       1  UNL1        0.2951
@<TRIPOS>BOND
     1     1     6    1
     2     1    16    1
     3     2     9    1
     4     2    17    1
     5     3     9    2
     6     4    10    1
     7     4    18    1
     8     5    10    2
     9     6     7    1
    10     6     8    1
    11     6     9    1
    12     7    10    1
    13     7    11    1
    14     7    12    1
    15     8    13    1
    16     8    14    1
    17     8    15    1
