@<TRIPOS>MOLECULE
IMPHY009814
 51 54 0 0 0
SMALL
GASTEIGER

@<TRIPOS>ATOM
      1 O           5.1350   -0.6121    0.0000 O.3     1  UNL1       -0.3313
      2 O           6.8671   -0.6121    0.0000 O.3     1  UNL1       -0.4598
      3 O           5.1350   -3.6121    0.0000 O.3     1  UNL1       -0.3864
      4 O           3.4030   -2.6121    0.0000 O.3     1  UNL1       -0.3865
      5 O           6.8671   -2.6121    0.0000 O.3     1  UNL1       -0.3829
      6 O           2.5369   -1.1121    0.0000 O.3     1  UNL1       -0.3924
      7 O           8.6270    2.4226    0.0000 O.2     1  UNL1       -0.2036
      8 O           5.1350    2.3879    0.0000 O.3     1  UNL1       -0.5063
      9 O          12.9895    3.9221    0.0000 O.3     1  UNL1       -0.5068
     10 C           5.1350   -2.6121    0.0000 C.3     1  UNL1        0.1152
     11 C           4.2690   -2.1121    0.0000 C.3     1  UNL1        0.1120
     12 C           6.0010   -2.1121    0.0000 C.3     1  UNL1        0.1454
     13 C           4.2690   -1.1121    0.0000 C.3     1  UNL1        0.1140
     14 C           6.0010   -1.1121    0.0000 C.3     1  UNL1        0.2308
     15 C           3.4030   -0.6121    0.0000 C.3     1  UNL1        0.0731
     16 C           6.8671    0.3879    0.0000 C.ar    1  UNL1        0.1436
     17 C           7.7331    0.8879    0.0000 C.ar    1  UNL1        0.1210
     18 C           6.0010    0.8879    0.0000 C.ar    1  UNL1        0.0229
     19 C           7.7331    1.8879    0.0000 C.ar    1  UNL1        0.3705
     20 C           8.6270    0.3533    0.0000 C.ar    1  UNL1       -0.0332
     21 C           6.0010    1.8879    0.0000 C.ar    1  UNL1        0.1293
     22 C           6.8671    2.3879    0.0000 C.ar    1  UNL1        0.0847
     23 C           9.5331    1.9087    0.0000 C.ar    1  UNL1        0.3635
     24 C           9.5331    0.8671    0.0000 C.ar    1  UNL1        0.0441
     25 C          10.3972    2.4121    0.0000 C.ar    1  UNL1        0.0791
     26 C          11.2651    1.9154    0.0000 C.ar    1  UNL1       -0.0422
     27 C          10.3933    3.4121    0.0000 C.ar    1  UNL1       -0.0422
     28 C          12.1292    2.4188    0.0000 C.ar    1  UNL1       -0.0193
     29 C          11.2574    3.9154    0.0000 C.ar    1  UNL1       -0.0193
     30 C          12.1254    3.4187    0.0000 C.ar    1  UNL1        0.1169
     31 H           5.6720   -2.9221    0.0000 H       1  UNL1        0.0648
     32 H           4.2690   -2.7321    0.0000 H       1  UNL1        0.0647
     33 H           6.5380   -1.8021    0.0000 H       1  UNL1        0.0683
     34 H           4.2690   -0.4921    0.0000 H       1  UNL1        0.0647
     35 H           6.0010   -0.4921    0.0000 H       1  UNL1        0.1084
     36 H           3.8015   -0.1371    0.0000 H       1  UNL1        0.0584
     37 H           3.0044   -0.1371    0.0000 H       1  UNL1        0.0584
     38 H           4.5981   -3.9221    0.0000 H       1  UNL1        0.2100
     39 H           3.4030   -3.2321    0.0000 H       1  UNL1        0.2100
     40 H           6.8671   -3.2321    0.0000 H       1  UNL1        0.2102
     41 H           2.0000   -0.8021    0.0000 H       1  UNL1        0.2095
     42 H           5.4641    0.5779    0.0000 H       1  UNL1        0.0691
     43 H           8.6199   -0.2667    0.0000 H       1  UNL1        0.0631
     44 H           6.8671    3.0079    0.0000 H       1  UNL1        0.0749
     45 H          10.0688    0.5550    0.0000 H       1  UNL1        0.0712
     46 H           5.1350    3.0079    0.0000 H       1  UNL1        0.2921
     47 H          11.2675    1.2954    0.0000 H       1  UNL1        0.0628
     48 H           9.8552    3.7200    0.0000 H       1  UNL1        0.0628
     49 H          12.6674    2.1108    0.0000 H       1  UNL1        0.0654
     50 H          11.2550    4.5354    0.0000 H       1  UNL1        0.0654
     51 H          13.5276    3.6142    0.0000 H       1  UNL1        0.2921
@<TRIPOS>UNITY_ATOM_ATTR
7 1
charge 1
@<TRIPOS>BOND
     1     1    13    1
     2     1    14    1
     3    14     2    1
     4     2    16    1
     5    10     3    1
     6     3    38    1
     7    11     4    1
     8     4    39    1
     9    12     5    1
    10     5    40    1
    11     6    15    1
    12     6    41    1
    13     7    19   ar
    14     7    23   ar
    15     8    21    1
    16     8    46    1
    17     9    30    1
    18     9    51    1
    19    10    11    1
    20    10    12    1
    21    10    31    1
    22    11    13    1
    23    11    32    1
    24    12    14    1
    25    12    33    1
    26    13    15    1
    27    13    34    1
    28    14    35    1
    29    15    36    1
    30    15    37    1
    31    16    17   ar
    32    16    18   ar
    33    17    19   ar
    34    17    20   ar
    35    18    21   ar
    36    18    42    1
    37    19    22   ar
    38    20    24   ar
    39    20    43    1
    40    21    22   ar
    41    22    44    1
    42    23    24   ar
    43    23    25    1
    44    24    45    1
    45    25    26   ar
    46    25    27   ar
    47    26    28   ar
    48    26    47    1
    49    27    29   ar
    50    27    48    1
    51    28    30   ar
    52    28    49    1
    53    29    30   ar
    54    29    50    1
