@<TRIPOS>MOLECULE
IMPHY007356
 13 13 0 0 0
SMALL
GASTEIGER

@<TRIPOS>ATOM
      1 O           2.8660    1.5000    0.0000 O.co2   1  UNL1       -0.5446
      2 O           2.0000    0.0000    0.0000 O.co2   1  UNL1       -0.5446
      3 N           4.5981   -1.5000    0.0000 N.ar    1  UNL1       -0.2626
      4 C           3.7320    0.0000    0.0000 C.ar    1  UNL1        0.0154
      5 C           4.5981    0.5000    0.0000 C.ar    1  UNL1       -0.0500
      6 C           3.7320   -1.0000    0.0000 C.ar    1  UNL1        0.0364
      7 C           5.4641    0.0000    0.0000 C.ar    1  UNL1       -0.0430
      8 C           5.4641   -1.0000    0.0000 C.ar    1  UNL1        0.0276
      9 C           2.8660    0.5000    0.0000 C.2     1  UNL1        0.0731
     10 H           4.5981    1.1200    0.0000 H       1  UNL1        0.0625
     11 H           3.1951   -1.3100    0.0000 H       1  UNL1        0.0836
     12 H           6.0010    0.3100    0.0000 H       1  UNL1        0.0633
     13 H           6.0010   -1.3100    0.0000 H       1  UNL1        0.0829
@<TRIPOS>UNITY_ATOM_ATTR
1 1
charge -1
@<TRIPOS>BOND
     1     1     9   ar
     2     2     9   ar
     3     3     6   ar
     4     3     8   ar
     5     4     5   ar
     6     4     6   ar
     7     4     9    1
     8     5     7   ar
     9     5    10    1
    10     6    11    1
    11     7     8   ar
    12     7    12    1
    13     8    13    1
