@<TRIPOS>MOLECULE
IMPHY009895
 22 22 0 0 0
SMALL
GASTEIGER

@<TRIPOS>ATOM
      1 O           5.4641   -1.4330    0.0000 O.2     1  UNL1       -0.2969
      2 O           2.0000   -1.4330    0.0000 O.2     1  UNL1       -0.2969
      3 C           3.7320    0.5670    0.0000 C.3     1  UNL1       -0.0216
      4 C           4.5981    0.0670    0.0000 C.3     1  UNL1        0.0118
      5 C           2.8660    0.0670    0.0000 C.3     1  UNL1        0.0118
      6 C           4.2320    1.4330    0.0000 C.3     1  UNL1       -0.0590
      7 C           3.2320    1.4330    0.0000 C.3     1  UNL1       -0.0590
      8 C           4.5981   -0.9330    0.0000 C.2     1  UNL1        0.1409
      9 C           2.8660   -0.9330    0.0000 C.2     1  UNL1        0.1409
     10 C           3.7320   -1.4330    0.0000 C.3     1  UNL1        0.0644
     11 H           5.2087   -0.0407    0.0000 H       1  UNL1        0.0347
     12 H           4.8101    0.6496    0.0000 H       1  UNL1        0.0347
     13 H           2.6540    0.6496    0.0000 H       1  UNL1        0.0347
     14 H           2.2554   -0.0407    0.0000 H       1  UNL1        0.0347
     15 H           4.7690    1.1230    0.0000 H       1  UNL1        0.0235
     16 H           4.5420    1.9700    0.0000 H       1  UNL1        0.0235
     17 H           3.6951    1.7430    0.0000 H       1  UNL1        0.0235
     18 H           3.7690    1.7430    0.0000 H       1  UNL1        0.0235
     19 H           2.9220    1.9700    0.0000 H       1  UNL1        0.0235
     20 H           2.6951    1.1230    0.0000 H       1  UNL1        0.0235
     21 H           3.3335   -1.9080    0.0000 H       1  UNL1        0.0419
     22 H           4.1306   -1.9080    0.0000 H       1  UNL1        0.0419
@<TRIPOS>BOND
     1     1     8    2
     2     2     9    2
     3     3     4    1
     4     3     5    1
     5     3     6    1
     6     3     7    1
     7     4     8    1
     8     4    11    1
     9     4    12    1
    10     5     9    1
    11     5    13    1
    12     5    14    1
    13     6    15    1
    14     6    16    1
    15     6    17    1
    16     7    18    1
    17     7    19    1
    18     7    20    1
    19     8    10    1
    20     9    10    1
    21    10    21    1
    22    10    22    1
