@<TRIPOS>MOLECULE
IMPHY015691
 30 30 0 0 0
SMALL
GASTEIGER

@<TRIPOS>ATOM
      1 O           4.7770    0.8116    0.0000 O.3     1  UNL1       -0.4567
      2 O           2.8090    1.5110    0.0000 O.2     1  UNL1       -0.4644
      3 O           6.4712    1.1718    0.0000 O.2     1  UNL1       -0.2508
      4 C           7.0949   -1.7627    0.0000 C.3     1  UNL1       -0.0528
      5 C           6.8870   -0.7845    0.0000 C.3     1  UNL1       -0.0430
      6 C           8.0460   -2.0717    0.0000 C.3     1  UNL1       -0.0559
      7 C           5.9360   -0.4755    0.0000 C.3     1  UNL1        0.0450
      8 C           8.2539   -3.0499    0.0000 C.3     1  UNL1       -0.0653
      9 C           5.7281    0.5026    0.0000 C.2     1  UNL1        0.3075
     10 C           4.5691    1.7898    0.0000 C.3     1  UNL1        0.1497
     11 C           3.6180    2.0988    0.0000 C.ar    1  UNL1        0.1421
     12 C           3.3090    3.0499    0.0000 C.ar    1  UNL1       -0.0173
     13 C           2.3090    3.0499    0.0000 C.ar    1  UNL1       -0.0235
     14 C           2.0000    2.0988    0.0000 C.ar    1  UNL1        0.0922
     15 H           6.4753   -1.7843    0.0000 H       1  UNL1        0.0265
     16 H           7.0086   -2.3767    0.0000 H       1  UNL1        0.0265
     17 H           7.5066   -0.7629    0.0000 H       1  UNL1        0.0270
     18 H           6.9733   -0.1706    0.0000 H       1  UNL1        0.0270
     19 H           8.6656   -2.0501    0.0000 H       1  UNL1        0.0263
     20 H           8.1323   -1.4577    0.0000 H       1  UNL1        0.0263
     21 H           5.3164   -0.4972    0.0000 H       1  UNL1        0.0377
     22 H           5.8497   -1.0895    0.0000 H       1  UNL1        0.0377
     23 H           7.6475   -3.1788    0.0000 H       1  UNL1        0.0230
     24 H           8.3828   -3.6563    0.0000 H       1  UNL1        0.0230
     25 H           8.8604   -2.9210    0.0000 H       1  UNL1        0.0230
     26 H           5.1887    1.8114    0.0000 H       1  UNL1        0.0780
     27 H           4.6554    2.4038    0.0000 H       1  UNL1        0.0780
     28 H           3.6734    3.5514    0.0000 H       1  UNL1        0.0653
     29 H           1.9446    3.5514    0.0000 H       1  UNL1        0.0649
     30 H           1.4103    1.9072    0.0000 H       1  UNL1        0.1029
@<TRIPOS>BOND
     1     1     9    1
     2     1    10    1
     3     2    11   ar
     4     2    14   ar
     5     3     9    2
     6     4     5    1
     7     4     6    1
     8     4    15    1
     9     4    16    1
    10     5     7    1
    11     5    17    1
    12     5    18    1
    13     6     8    1
    14     6    19    1
    15     6    20    1
    16     7     9    1
    17     7    21    1
    18     7    22    1
    19     8    23    1
    20     8    24    1
    21     8    25    1
    22    10    11    1
    23    10    26    1
    24    10    27    1
    25    11    12   ar
    26    12    13   ar
    27    12    28    1
    28    13    14   ar
    29    13    29    1
    30    14    30    1
