@<TRIPOS>MOLECULE
IMPHY004400
 39 39 0 0 0
SMALL
GASTEIGER

@<TRIPOS>ATOM
      1 S           6.0010   -0.4050    0.0000 S.3     1  UNL1       -0.0725
      2 S           7.7331    2.5950    0.0000 S.O2    1  UNL1        0.2709
      3 O           4.2690   -0.4050    0.0000 O.3     1  UNL1       -0.3549
      4 O           2.5369   -2.4050    0.0000 O.3     1  UNL1       -0.3865
      5 O           4.2690   -3.4050    0.0000 O.3     1  UNL1       -0.3865
      6 O           6.0010   -2.4050    0.0000 O.3     1  UNL1       -0.3857
      7 O           2.5369    0.5950    0.0000 O.3     1  UNL1       -0.3924
      8 O           6.8671    2.0950    0.0000 O.2     1  UNL1       -0.2068
      9 O           8.5991    3.0950    0.0000 O.3     1  UNL1       -0.2209
     10 O           7.2331    3.4610    0.0000 O.2     1  UNL1       -0.1060
     11 O           8.2331    1.7290    0.0000 O.2     1  UNL1       -0.1060
     12 N           6.8671    1.0950    0.0000 N.2     1  UNL1       -0.0480
     13 C           3.4030   -1.9050    0.0000 C.3     1  UNL1        0.1118
     14 C           4.2690   -2.4050    0.0000 C.3     1  UNL1        0.1126
     15 C           3.4030   -0.9050    0.0000 C.3     1  UNL1        0.1115
     16 C           5.1350   -1.9050    0.0000 C.3     1  UNL1        0.1192
     17 C           5.1350   -0.9050    0.0000 C.3     1  UNL1        0.1384
     18 C           2.5369   -0.4050    0.0000 C.3     1  UNL1        0.0730
     19 C           6.0010    0.5950    0.0000 C.2     1  UNL1        0.1219
     20 C           5.1350    1.0950    0.0000 C.3     1  UNL1        0.0170
     21 C           5.1350    2.0950    0.0000 C.2     1  UNL1       -0.0847
     22 C           4.2690    2.5950    0.0000 C.2     1  UNL1       -0.1023
     23 H           3.4030   -2.5250    0.0000 H       1  UNL1        0.0647
     24 H           4.8059   -2.7150    0.0000 H       1  UNL1        0.0647
     25 H           3.4030   -0.2850    0.0000 H       1  UNL1        0.0646
     26 H           5.6720   -1.5950    0.0000 H       1  UNL1        0.0655
     27 H           5.1350   -0.2850    0.0000 H       1  UNL1        0.0743
     28 H           1.9264   -0.2973    0.0000 H       1  UNL1        0.0584
     29 H           2.3249   -0.9876    0.0000 H       1  UNL1        0.0584
     30 H           3.7320   -3.7150    0.0000 H       1  UNL1        0.2100
     31 H           2.0000   -2.0950    0.0000 H       1  UNL1        0.2100
     32 H           6.5380   -2.0950    0.0000 H       1  UNL1        0.2100
     33 H           2.0000    0.9050    0.0000 H       1  UNL1        0.2095
     34 H           4.5244    1.2027    0.0000 H       1  UNL1        0.0377
     35 H           4.9230    0.5124    0.0000 H       1  UNL1        0.0377
     36 H           5.6720    2.4050    0.0000 H       1  UNL1        0.0570
     37 H           4.2690    3.2150    0.0000 H       1  UNL1        0.0532
     38 H           3.7320    2.2850    0.0000 H       1  UNL1        0.0532
     39 H           8.5991    3.7150    0.0000 H       1  UNL1        0.2480
@<TRIPOS>BOND
     1    17     1    1
     2     1    19    1
     3     2     8    1
     4     2     9    1
     5     2    10    2
     6     2    11    2
     7     3    15    1
     8     3    17    1
     9    13     4    1
    10     4    31    1
    11    14     5    1
    12     5    30    1
    13    16     6    1
    14     6    32    1
    15     7    18    1
    16     7    33    1
    17     8    12    1
    18     9    39    1
    19    12    19    2
    20    13    14    1
    21    13    15    1
    22    13    23    1
    23    14    16    1
    24    14    24    1
    25    15    18    1
    26    15    25    1
    27    16    17    1
    28    16    26    1
    29    17    27    1
    30    18    28    1
    31    18    29    1
    32    19    20    1
    33    20    21    1
    34    20    34    1
    35    20    35    1
    36    21    22    2
    37    21    36    1
    38    22    37    1
    39    22    38    1
