@<TRIPOS>MOLECULE
IMPHY014070
 52 53 0 0 0
SMALL
GASTEIGER

@<TRIPOS>ATOM
      1 O           4.6660    3.0000    0.0000 O.2     1  UNL1       -0.2872
      2 N           4.6660   -0.0000    0.0000 N.ar    1  UNL1       -0.3466
      3 C           7.2641    0.5000    0.0000 C.3     1  UNL1       -0.0477
      4 C           8.1301   -0.0000    0.0000 C.3     1  UNL1       -0.0524
      5 C           6.3981   -0.0000    0.0000 C.3     1  UNL1       -0.0122
      6 C           8.9962    0.5000    0.0000 C.3     1  UNL1       -0.0496
      7 C           5.5321    0.5000    0.0000 C.ar    1  UNL1        0.0225
      8 C           9.8622    0.0000    0.0000 C.3     1  UNL1       -0.0348
      9 C           3.8000    0.5000    0.0000 C.ar    1  UNL1        0.0527
     10 C           5.5321    1.5000    0.0000 C.ar    1  UNL1        0.0051
     11 C           3.8000    1.5000    0.0000 C.ar    1  UNL1        0.0452
     12 C           4.6660    2.0000    0.0000 C.ar    1  UNL1        0.1897
     13 C           4.6660   -1.0000    0.0000 C.3     1  UNL1        0.0121
     14 C          10.7282    0.5000    0.0000 C.2     1  UNL1       -0.0879
     15 C          11.5942   -1.0000    0.0000 C.3     1  UNL1       -0.0348
     16 C           2.9061   -0.0347    0.0000 C.ar    1  UNL1       -0.0375
     17 C          12.4603   -1.5000    0.0000 C.3     1  UNL1       -0.0499
     18 C          11.5942    0.0000    0.0000 C.2     1  UNL1       -0.0879
     19 C           2.9061    2.0347    0.0000 C.ar    1  UNL1       -0.0490
     20 C          12.4603   -2.5000    0.0000 C.3     1  UNL1       -0.0556
     21 C           2.0000    0.4792    0.0000 C.ar    1  UNL1       -0.0598
     22 C           2.0000    1.5208    0.0000 C.ar    1  UNL1       -0.0610
     23 C          13.3263   -3.0000    0.0000 C.3     1  UNL1       -0.0653
     24 H           7.6626    0.9749    0.0000 H       1  UNL1        0.0269
     25 H           6.8656    0.9749    0.0000 H       1  UNL1        0.0269
     26 H           7.7316   -0.4749    0.0000 H       1  UNL1        0.0265
     27 H           8.5287   -0.4749    0.0000 H       1  UNL1        0.0265
     28 H           5.9996   -0.4749    0.0000 H       1  UNL1        0.0328
     29 H           6.7966   -0.4749    0.0000 H       1  UNL1        0.0328
     30 H           9.3947    0.9749    0.0000 H       1  UNL1        0.0268
     31 H           8.5976    0.9749    0.0000 H       1  UNL1        0.0268
     32 H           9.4637   -0.4749    0.0000 H       1  UNL1        0.0307
     33 H          10.2607   -0.4749    0.0000 H       1  UNL1        0.0307
     34 H           6.0690    1.8100    0.0000 H       1  UNL1        0.0673
     35 H           4.0460   -1.0000    0.0000 H       1  UNL1        0.0456
     36 H           4.6660   -1.6200    0.0000 H       1  UNL1        0.0456
     37 H           5.2860   -1.0000    0.0000 H       1  UNL1        0.0456
     38 H          10.7282    1.1200    0.0000 H       1  UNL1        0.0569
     39 H          10.9837   -0.8923    0.0000 H       1  UNL1        0.0307
     40 H          11.3822   -1.5826    0.0000 H       1  UNL1        0.0307
     41 H           2.9132   -0.6546    0.0000 H       1  UNL1        0.0638
     42 H          13.0708   -1.6077    0.0000 H       1  UNL1        0.0268
     43 H          12.6723   -0.9174    0.0000 H       1  UNL1        0.0268
     44 H          12.1312    0.3100    0.0000 H       1  UNL1        0.0569
     45 H           2.9132    2.6546    0.0000 H       1  UNL1        0.0625
     46 H          11.8497   -2.3923    0.0000 H       1  UNL1        0.0263
     47 H          12.2482   -3.0826    0.0000 H       1  UNL1        0.0263
     48 H           1.4643    0.1671    0.0000 H       1  UNL1        0.0618
     49 H           1.4643    1.8329    0.0000 H       1  UNL1        0.0618
     50 H          13.0163   -3.5369    0.0000 H       1  UNL1        0.0230
     51 H          13.8632   -3.3100    0.0000 H       1  UNL1        0.0230
     52 H          13.6363   -2.4631    0.0000 H       1  UNL1        0.0230
@<TRIPOS>BOND
     1     1    12    2
     2     2     7   ar
     3     2     9   ar
     4     2    13    1
     5     3     4    1
     6     3     5    1
     7     3    24    1
     8     3    25    1
     9     4     6    1
    10     4    26    1
    11     4    27    1
    12     5     7    1
    13     5    28    1
    14     5    29    1
    15     6     8    1
    16     6    30    1
    17     6    31    1
    18     7    10   ar
    19     8    14    1
    20     8    32    1
    21     8    33    1
    22     9    11   ar
    23     9    16   ar
    24    10    12   ar
    25    10    34    1
    26    11    12   ar
    27    11    19   ar
    28    13    35    1
    29    13    36    1
    30    13    37    1
    31    14    18    2
    32    14    38    1
    33    15    17    1
    34    15    18    1
    35    15    39    1
    36    15    40    1
    37    16    21   ar
    38    16    41    1
    39    17    20    1
    40    17    42    1
    41    17    43    1
    42    18    44    1
    43    19    22   ar
    44    19    45    1
    45    20    23    1
    46    20    46    1
    47    20    47    1
    48    21    22   ar
    49    21    48    1
    50    22    49    1
    51    23    50    1
    52    23    51    1
    53    23    52    1
