@<TRIPOS>MOLECULE
IMPHY005316
 21 22 0 0 0
SMALL
GASTEIGER

@<TRIPOS>ATOM
      1 O           5.5321   -0.7535    0.0000 O.3     1  UNL1       -0.4608
      2 O           4.6144   -2.2673    0.0000 O.2     1  UNL1       -0.2450
      3 O           2.0000    2.2673    0.0000 O.2     1  UNL1       -0.2957
      4 C           3.7320    0.2673    0.0000 C.ar    1  UNL1       -0.0200
      5 C           4.6260    0.8020    0.0000 C.3     1  UNL1        0.0082
      6 C           3.7320   -0.7327    0.0000 C.ar    1  UNL1        0.0629
      7 C           5.5321    0.2881    0.0000 C.3     1  UNL1        0.0968
      8 C           2.8660    0.7673    0.0000 C.ar    1  UNL1        0.0182
      9 C           4.6260   -1.2674    0.0000 C.2     1  UNL1        0.3395
     10 C           2.8660   -1.2327    0.0000 C.ar    1  UNL1       -0.0475
     11 C           2.0000    0.2673    0.0000 C.ar    1  UNL1       -0.0512
     12 C           2.0000   -0.7327    0.0000 C.ar    1  UNL1       -0.0603
     13 C           2.8660    1.7673    0.0000 C.2     1  UNL1        0.1505
     14 H           5.0196    1.2810    0.0000 H       1  UNL1        0.0346
     15 H           4.2214    1.2718    0.0000 H       1  UNL1        0.0346
     16 H           6.1429    0.1820    0.0000 H       1  UNL1        0.0701
     17 H           5.7411    0.8718    0.0000 H       1  UNL1        0.0701
     18 H           2.8660   -1.8527    0.0000 H       1  UNL1        0.0626
     19 H           1.4631    0.5773    0.0000 H       1  UNL1        0.0624
     20 H           1.4631   -1.0427    0.0000 H       1  UNL1        0.0618
     21 H           3.4030    2.0773    0.0000 H       1  UNL1        0.1081
@<TRIPOS>BOND
     1     1     7    1
     2     1     9    1
     3     2     9    2
     4     3    13    2
     5     4     5    1
     6     4     6   ar
     7     4     8   ar
     8     5     7    1
     9     5    14    1
    10     5    15    1
    11     6     9    1
    12     6    10   ar
    13     7    16    1
    14     7    17    1
    15     8    11   ar
    16     8    13    1
    17    10    12   ar
    18    10    18    1
    19    11    12   ar
    20    11    19    1
    21    12    20    1
    22    13    21    1
