@<TRIPOS>MOLECULE
IMPHY012799
 65 66 0 0 0
SMALL
GASTEIGER

@<TRIPOS>ATOM
      1 O           3.7320    0.4400    0.0000 O.3     1  UNL1       -0.5055
      2 O           5.4641   -2.5600    0.0000 O.3     1  UNL1       -0.5063
      3 O           7.1962    0.4400    0.0000 O.3     1  UNL1       -0.4942
      4 O           4.5981    1.9400    0.0000 O.2     1  UNL1       -0.2870
      5 O           8.0622    1.9400    0.0000 O.3     1  UNL1       -0.4944
      6 O           9.7942    4.9400    0.0000 O.3     1  UNL1       -0.5066
      7 C           3.7320   -2.5600    0.0000 C.3     1  UNL1       -0.0128
      8 C           3.7320   -1.5600    0.0000 C.3     1  UNL1       -0.0139
      9 C           4.5981   -3.0600    0.0000 C.3     1  UNL1       -0.0277
     10 C           4.5981   -1.0600    0.0000 C.ar    1  UNL1        0.0369
     11 C           2.8660   -3.0600    0.0000 C.2     1  UNL1       -0.0760
     12 C           4.5981   -4.0600    0.0000 C.2     1  UNL1       -0.0847
     13 C           4.5981   -0.0600    0.0000 C.ar    1  UNL1        0.1378
     14 C           5.4641   -1.5600    0.0000 C.ar    1  UNL1        0.1270
     15 C           2.8660   -4.0600    0.0000 C.3     1  UNL1       -0.0438
     16 C           5.4641    0.4400    0.0000 C.ar    1  UNL1        0.1050
     17 C           6.3301   -1.0600    0.0000 C.ar    1  UNL1        0.0227
     18 C           5.4641   -4.5600    0.0000 C.2     1  UNL1       -0.0796
     19 C           6.3301   -0.0600    0.0000 C.ar    1  UNL1        0.1379
     20 C           2.0000   -2.5600    0.0000 C.2     1  UNL1       -0.0994
     21 C           5.4641    1.4400    0.0000 C.2     1  UNL1        0.1931
     22 C           5.4641   -5.5600    0.0000 C.3     1  UNL1       -0.0440
     23 C           6.3301   -4.0600    0.0000 C.3     1  UNL1       -0.0440
     24 C           6.3301    1.9400    0.0000 C.2     1  UNL1       -0.0134
     25 C           8.0622   -0.0600    0.0000 C.3     1  UNL1        0.0788
     26 C           6.3301    2.9400    0.0000 C.2     1  UNL1       -0.0475
     27 C           7.1962    3.4400    0.0000 C.ar    1  UNL1        0.0170
     28 C           8.0622    2.9400    0.0000 C.ar    1  UNL1        0.1307
     29 C           7.1962    4.4400    0.0000 C.ar    1  UNL1       -0.0477
     30 C           8.9282    3.4400    0.0000 C.ar    1  UNL1        0.0221
     31 C           8.0622    4.9400    0.0000 C.ar    1  UNL1       -0.0194
     32 C           8.9282    4.4400    0.0000 C.ar    1  UNL1        0.1204
     33 C           8.9282    1.4400    0.0000 C.3     1  UNL1        0.0788
     34 H           3.7320   -3.1800    0.0000 H       1  UNL1        0.0352
     35 H           3.5200   -0.9774    0.0000 H       1  UNL1        0.0321
     36 H           3.1215   -1.6677    0.0000 H       1  UNL1        0.0321
     37 H           5.2087   -3.1677    0.0000 H       1  UNL1        0.0313
     38 H           4.8101   -2.4774    0.0000 H       1  UNL1        0.0313
     39 H           4.0611   -4.3700    0.0000 H       1  UNL1        0.0572
     40 H           2.2460   -4.0600    0.0000 H       1  UNL1        0.0274
     41 H           2.8660   -4.6800    0.0000 H       1  UNL1        0.0274
     42 H           3.4860   -4.0600    0.0000 H       1  UNL1        0.0274
     43 H           6.8671   -1.3700    0.0000 H       1  UNL1        0.0691
     44 H           2.0000   -1.9400    0.0000 H       1  UNL1        0.0534
     45 H           1.4631   -2.8700    0.0000 H       1  UNL1        0.0534
     46 H           4.8441   -5.5600    0.0000 H       1  UNL1        0.0274
     47 H           5.4641   -6.1800    0.0000 H       1  UNL1        0.0274
     48 H           6.0841   -5.5600    0.0000 H       1  UNL1        0.0274
     49 H           6.6401   -4.5969    0.0000 H       1  UNL1        0.0274
     50 H           6.8671   -3.7500    0.0000 H       1  UNL1        0.0274
     51 H           6.0201   -3.5231    0.0000 H       1  UNL1        0.0274
     52 H           3.1951    0.1300    0.0000 H       1  UNL1        0.2922
     53 H           6.0010   -2.8700    0.0000 H       1  UNL1        0.2921
     54 H           6.8671    1.6300    0.0000 H       1  UNL1        0.0656
     55 H           5.7932    3.2500    0.0000 H       1  UNL1        0.0626
     56 H           7.7522   -0.5969    0.0000 H       1  UNL1        0.0660
     57 H           8.5991   -0.3700    0.0000 H       1  UNL1        0.0660
     58 H           8.3722    0.4769    0.0000 H       1  UNL1        0.0660
     59 H           6.6592    4.7500    0.0000 H       1  UNL1        0.0626
     60 H           9.4651    3.1300    0.0000 H       1  UNL1        0.0691
     61 H           8.0622    5.5600    0.0000 H       1  UNL1        0.0654
     62 H           8.6182    0.9031    0.0000 H       1  UNL1        0.0660
     63 H           9.4651    1.1300    0.0000 H       1  UNL1        0.0660
     64 H           9.2382    1.9769    0.0000 H       1  UNL1        0.0660
     65 H           9.7942    5.5600    0.0000 H       1  UNL1        0.2921
@<TRIPOS>BOND
     1     1    13    1
     2     1    52    1
     3     2    14    1
     4     2    53    1
     5     3    19    1
     6     3    25    1
     7     4    21    2
     8     5    28    1
     9     5    33    1
    10     6    32    1
    11     6    65    1
    12     7     8    1
    13     7     9    1
    14     7    11    1
    15     7    34    1
    16     8    10    1
    17     8    35    1
    18     8    36    1
    19     9    12    1
    20     9    37    1
    21     9    38    1
    22    10    13   ar
    23    10    14   ar
    24    11    15    1
    25    11    20    2
    26    12    18    2
    27    12    39    1
    28    13    16   ar
    29    14    17   ar
    30    15    40    1
    31    15    41    1
    32    15    42    1
    33    16    19   ar
    34    16    21    1
    35    17    19   ar
    36    17    43    1
    37    18    22    1
    38    18    23    1
    39    20    44    1
    40    20    45    1
    41    21    24    1
    42    22    46    1
    43    22    47    1
    44    22    48    1
    45    23    49    1
    46    23    50    1
    47    23    51    1
    48    24    26    2
    49    24    54    1
    50    25    56    1
    51    25    57    1
    52    25    58    1
    53    26    27    1
    54    26    55    1
    55    27    28   ar
    56    27    29   ar
    57    28    30   ar
    58    29    31   ar
    59    29    59    1
    60    30    32   ar
    61    30    60    1
    62    31    32   ar
    63    31    61    1
    64    33    62    1
    65    33    63    1
    66    33    64    1
