@<TRIPOS>MOLECULE
IMPHY015288
 29 28 0 0 0
SMALL
GASTEIGER

@<TRIPOS>ATOM
      1 O           4.5981    0.2500    0.0000 O.3     1  UNL1       -0.4644
      2 O           5.4641   -1.2500    0.0000 O.2     1  UNL1       -0.2508
      3 C           7.1962   -0.2500    0.0000 C.3     1  UNL1       -0.0367
      4 C           2.8660    0.2500    0.0000 C.3     1  UNL1       -0.0123
      5 C           6.3301    0.2500    0.0000 C.3     1  UNL1        0.0473
      6 C           3.7320   -0.2500    0.0000 C.3     1  UNL1        0.0948
      7 C           8.0622    0.2500    0.0000 C.3     1  UNL1       -0.0622
      8 C           7.1962   -1.2500    0.0000 C.3     1  UNL1       -0.0622
      9 C           5.4641   -0.2500    0.0000 C.2     1  UNL1        0.3073
     10 C           2.0000   -0.2500    0.0000 C.3     1  UNL1       -0.0596
     11 C           2.8660    1.2500    0.0000 C.3     1  UNL1       -0.0596
     12 H           6.6592   -0.5600    0.0000 H       1  UNL1        0.0301
     13 H           2.8660   -0.3700    0.0000 H       1  UNL1        0.0328
     14 H           6.7287    0.7249    0.0000 H       1  UNL1        0.0380
     15 H           5.9316    0.7249    0.0000 H       1  UNL1        0.0380
     16 H           3.3335   -0.7249    0.0000 H       1  UNL1        0.0700
     17 H           4.1306   -0.7249    0.0000 H       1  UNL1        0.0700
     18 H           8.3722   -0.2869    0.0000 H       1  UNL1        0.0232
     19 H           8.5991    0.5600    0.0000 H       1  UNL1        0.0232
     20 H           7.7522    0.7869    0.0000 H       1  UNL1        0.0232
     21 H           6.5762   -1.2500    0.0000 H       1  UNL1        0.0232
     22 H           7.1962   -1.8700    0.0000 H       1  UNL1        0.0232
     23 H           7.8162   -1.2500    0.0000 H       1  UNL1        0.0232
     24 H           1.6900    0.2869    0.0000 H       1  UNL1        0.0233
     25 H           1.4631   -0.5600    0.0000 H       1  UNL1        0.0233
     26 H           2.3100   -0.7869    0.0000 H       1  UNL1        0.0233
     27 H           3.4860    1.2500    0.0000 H       1  UNL1        0.0233
     28 H           2.8660    1.8700    0.0000 H       1  UNL1        0.0233
     29 H           2.2460    1.2500    0.0000 H       1  UNL1        0.0233
@<TRIPOS>BOND
     1     1     6    1
     2     1     9    1
     3     2     9    2
     4     3     5    1
     5     3     7    1
     6     3     8    1
     7     3    12    1
     8     4     6    1
     9     4    10    1
    10     4    11    1
    11     4    13    1
    12     5     9    1
    13     5    14    1
    14     5    15    1
    15     6    16    1
    16     6    17    1
    17     7    18    1
    18     7    19    1
    19     7    20    1
    20     8    21    1
    21     8    22    1
    22     8    23    1
    23    10    24    1
    24    10    25    1
    25    10    26    1
    26    11    27    1
    27    11    28    1
    28    11    29    1
