@<TRIPOS>MOLECULE
IMPHY001019
 39 41 0 0 0
SMALL
GASTEIGER

@<TRIPOS>ATOM
      1 O           2.0000   -0.7846    0.0000 O.3     1  UNL1       -0.4597
      2 O           2.2729    0.9706    0.0000 O.2     1  UNL1       -0.2501
      3 C           4.3958    0.2154    0.0000 C.3     1  UNL1       -0.0117
      4 C           5.2619   -0.2846    0.0000 C.3     1  UNL1       -0.0260
      5 C           6.1719    0.2222    0.0000 C.3     1  UNL1       -0.0312
      6 C           3.5298   -0.2846    0.0000 C.3     1  UNL1        0.0862
      7 C           4.3798    1.2569    0.0000 C.3     1  UNL1       -0.0463
      8 C           6.1799    1.2638    0.0000 C.3     1  UNL1       -0.0476
      9 C           5.2619   -1.2846    0.0000 C.3     1  UNL1       -0.0305
     10 C           5.2778    1.7846    0.0000 C.3     1  UNL1       -0.0520
     11 C           3.5298    0.7154    0.0000 C.3     1  UNL1       -0.0582
     12 C           3.5298   -1.2846    0.0000 C.2     1  UNL1       -0.0223
     13 C           7.1718    0.2107    0.0000 C.3     1  UNL1       -0.0595
     14 C           6.6618   -0.6495    0.0000 C.3     1  UNL1       -0.0595
     15 C           4.3958   -1.7846    0.0000 C.2     1  UNL1       -0.0805
     16 C           2.5836    0.0201    0.0000 C.2     1  UNL1        0.3152
     17 C           2.5836   -1.5894    0.0000 C.3     1  UNL1        0.1144
     18 H           5.9947   -0.7153    0.0000 H       1  UNL1        0.0314
     19 H           4.2660   -0.7096    0.0000 H       1  UNL1        0.0466
     20 H           4.1618    1.8373    0.0000 H       1  UNL1        0.0271
     21 H           3.7706    1.1414    0.0000 H       1  UNL1        0.0271
     22 H           6.7899    1.1530    0.0000 H       1  UNL1        0.0271
     23 H           6.3935    1.8459    0.0000 H       1  UNL1        0.0271
     24 H           5.4739   -1.8672    0.0000 H       1  UNL1        0.0310
     25 H           5.8725   -1.1770    0.0000 H       1  UNL1        0.0310
     26 H           5.6751    2.2606    0.0000 H       1  UNL1        0.0266
     27 H           4.8769    2.2575    0.0000 H       1  UNL1        0.0266
     28 H           3.8398    1.2523    0.0000 H       1  UNL1        0.0235
     29 H           2.9929    1.0254    0.0000 H       1  UNL1        0.0235
     30 H           3.2198    0.1784    0.0000 H       1  UNL1        0.0235
     31 H           7.1646   -0.4093    0.0000 H       1  UNL1        0.0235
     32 H           7.7918    0.2035    0.0000 H       1  UNL1        0.0235
     33 H           7.1790    0.8306    0.0000 H       1  UNL1        0.0235
     34 H           6.1213   -0.9533    0.0000 H       1  UNL1        0.0235
     35 H           6.9656   -1.1900    0.0000 H       1  UNL1        0.0235
     36 H           7.2023   -0.3458    0.0000 H       1  UNL1        0.0235
     37 H           4.3958   -2.4046    0.0000 H       1  UNL1        0.0573
     38 H           2.0462   -1.8986    0.0000 H       1  UNL1        0.0746
     39 H           2.8346   -2.1563    0.0000 H       1  UNL1        0.0746
@<TRIPOS>BOND
     1     1    16    1
     2     1    17    1
     3     2    16    2
     4     3     4    1
     5     3     6    1
     6     3     7    1
     7     3    11    1
     8     4     5    1
     9     4     9    1
    10     4    18    1
    11     5     8    1
    12     5    13    1
    13     5    14    1
    14     6    12    1
    15     6    16    1
    16     6    19    1
    17     7    10    1
    18     7    20    1
    19     7    21    1
    20     8    10    1
    21     8    22    1
    22     8    23    1
    23     9    15    1
    24     9    24    1
    25     9    25    1
    26    10    26    1
    27    10    27    1
    28    11    28    1
    29    11    29    1
    30    11    30    1
    31    12    15    2
    32    12    17    1
    33    13    31    1
    34    13    32    1
    35    13    33    1
    36    14    34    1
    37    14    35    1
    38    14    36    1
    39    15    37    1
    40    17    38    1
    41    17    39    1
