@<TRIPOS>MOLECULE
IMPHY008111
 162 173 0 0 0
SMALL
GASTEIGER

@<TRIPOS>ATOM
      1 O           9.4230   -4.3143    0.0000 O.3     1  UNL1       -0.3374
      2 O          16.6251    3.4559    0.0000 O.3     1  UNL1       -0.3374
      3 O           6.8883   -3.4126    0.0000 O.3     1  UNL1       -0.4512
      4 O          17.5072    0.9144    0.0000 O.3     1  UNL1       -0.4512
      5 O           7.8988   -1.6502    0.0000 O.3     1  UNL1       -0.4501
      6 O          19.2774    1.9112    0.0000 O.3     1  UNL1       -0.4501
      7 O           9.9471   -1.6502    0.0000 O.3     1  UNL1       -0.4487
      8 O          19.2932    3.9595    0.0000 O.3     1  UNL1       -0.4488
      9 O          10.9576   -3.4319    0.0000 O.3     1  UNL1       -0.3641
     10 O          17.5193    4.9836    0.0000 O.3     1  UNL1       -0.3641
     11 O          15.5164    0.9484    0.0000 O.3     1  UNL1       -0.4584
     12 O           6.9071   -5.4037    0.0000 O.3     1  UNL1       -0.4584
     13 O          16.4869   -0.7659    0.0000 O.2     1  UNL1       -0.2449
     14 O           5.2002   -4.4200    0.0000 O.2     1  UNL1       -0.2449
     15 O           9.3955   -0.7784    0.0000 O.2     1  UNL1       -0.2449
     16 O          20.1607    3.4011    0.0000 O.2     1  UNL1       -0.2449
     17 O          11.4438   -2.5220    0.0000 O.2     1  UNL1       -0.2448
     18 O          18.4330    5.4628    0.0000 O.2     1  UNL1       -0.2449
     19 O          12.9471   -1.6617    0.0000 O.3     1  UNL1       -0.4476
     20 O          16.5164    0.9484    0.0000 O.2     1  UNL1       -0.2449
     21 O           6.9148   -4.4037    0.0000 O.2     1  UNL1       -0.2449
     22 O          17.0132   -3.4198    0.0000 O.3     1  UNL1       -0.5028
     23 O          16.0195   -3.4198    0.0000 O.3     1  UNL1       -0.5028
     24 O           2.5505   -3.8732    0.0000 O.3     1  UNL1       -0.5028
     25 O           2.5428   -4.8669    0.0000 O.3     1  UNL1       -0.5028
     26 O          13.9712   -3.4356    0.0000 O.3     1  UNL1       -0.5009
     27 O          20.0856   -1.6617    0.0000 O.3     1  UNL1       -0.5032
     28 O           4.3322   -0.8145    0.0000 O.3     1  UNL1       -0.5032
     29 O          19.0615   -3.4356    0.0000 O.3     1  UNL1       -0.5009
     30 O           2.5505   -1.8249    0.0000 O.3     1  UNL1       -0.5009
     31 O          13.9538    0.0664    0.0000 O.3     1  UNL1       -0.5008
     32 O           2.5112   -6.9150    0.0000 O.3     1  UNL1       -0.5009
     33 O           4.2772   -7.9528    0.0000 O.3     1  UNL1       -0.5032
     34 O          10.9605    1.8100    0.0000 O.3     1  UNL1       -0.5032
     35 O          12.9605    1.8023    0.0000 O.3     1  UNL1       -0.5008
     36 O           8.3821    2.6818    0.0000 O.3     1  UNL1       -0.5032
     37 O           5.3888    0.9382    0.0000 O.3     1  UNL1       -0.5032
     38 O          23.6130    2.3611    0.0000 O.3     1  UNL1       -0.5032
     39 O          21.8464   -0.6187    0.0000 O.3     1  UNL1       -0.5032
     40 O          21.0407    7.9528    0.0000 O.3     1  UNL1       -0.5032
     41 O          22.7611    4.9461    0.0000 O.3     1  UNL1       -0.5032
     42 O           6.3821    2.6741    0.0000 O.3     1  UNL1       -0.5009
     43 O          23.5899    0.3613    0.0000 O.3     1  UNL1       -0.5009
     44 O          22.7688    6.9461    0.0000 O.3     1  UNL1       -0.5009
     45 C           7.8883   -3.4203    0.0000 C.3     1  UNL1        0.1729
     46 C           8.4022   -2.5143    0.0000 C.3     1  UNL1        0.1840
     47 C          17.5072    1.9144    0.0000 C.3     1  UNL1        0.1729
     48 C          18.4172    2.4212    0.0000 C.3     1  UNL1        0.1840
     49 C           8.3816   -4.2902    0.0000 C.3     1  UNL1        0.1361
     50 C          16.6412    2.4144    0.0000 C.3     1  UNL1        0.1361
     51 C           9.4438   -2.5143    0.0000 C.3     1  UNL1        0.1938
     52 C          18.4253    3.4628    0.0000 C.3     1  UNL1        0.1938
     53 C           9.9576   -3.4203    0.0000 C.3     1  UNL1        0.1981
     54 C          17.5232    3.9836    0.0000 C.3     1  UNL1        0.1981
     55 C           7.8750   -5.1523    0.0000 C.3     1  UNL1        0.1226
     56 C          15.7752    1.9144    0.0000 C.3     1  UNL1        0.1226
     57 C          17.0164    0.0824    0.0000 C.2     1  UNL1        0.3405
     58 C           6.0526   -3.8971    0.0000 C.2     1  UNL1        0.3405
     59 C           8.3955   -0.7822    0.0000 C.2     1  UNL1        0.3399
     60 C          20.1492    2.4012    0.0000 C.2     1  UNL1        0.3399
     61 C          10.9471   -1.6540    0.0000 C.2     1  UNL1        0.3435
     62 C          19.2971    4.9595    0.0000 C.2     1  UNL1        0.3400
     63 C          17.5164   -0.7836    0.0000 C.ar    1  UNL1        0.0740
     64 C           5.1905   -3.3904    0.0000 C.ar    1  UNL1        0.0740
     65 C          16.0164    0.0824    0.0000 C.2     1  UNL1        0.3401
     66 C           6.0449   -4.8970    0.0000 C.2     1  UNL1        0.3401
     67 C          17.0164   -1.6496    0.0000 C.ar    1  UNL1        0.0458
     68 C          15.5164   -0.7836    0.0000 C.ar    1  UNL1        0.0740
     69 C           4.3206   -3.8837    0.0000 C.ar    1  UNL1        0.0458
     70 C          16.0164   -1.6496    0.0000 C.ar    1  UNL1        0.0458
     71 C          11.4504   -0.7899    0.0000 C.ar    1  UNL1        0.1085
     72 C           7.8921    0.0819    0.0000 C.ar    1  UNL1        0.0661
     73 C           5.1751   -5.3904    0.0000 C.ar    1  UNL1        0.0740
     74 C          21.0093    1.8912    0.0000 C.ar    1  UNL1        0.0661
     75 C           4.3129   -4.8837    0.0000 C.ar    1  UNL1        0.0458
     76 C          20.1650    5.4561    0.0000 C.ar    1  UNL1        0.0661
     77 C          18.5579   -0.7676    0.0000 C.ar    1  UNL1       -0.0017
     78 C           5.2146   -2.3491    0.0000 C.ar    1  UNL1       -0.0017
     79 C          12.4504   -0.7938    0.0000 C.ar    1  UNL1        0.1876
     80 C          14.4748   -0.7676    0.0000 C.ar    1  UNL1       -0.0009
     81 C          17.5232   -2.5596    0.0000 C.ar    1  UNL1        0.1708
     82 C          15.5095   -2.5596    0.0000 C.ar    1  UNL1        0.1708
     83 C           3.4146   -3.3699    0.0000 C.ar    1  UNL1        0.1708
     84 C          13.9471   -1.6656    0.0000 C.ar    1  UNL1        0.1743
     85 C          10.9538    0.0780    0.0000 C.ar    1  UNL1        0.0013
     86 C           3.3990   -5.3835    0.0000 C.ar    1  UNL1        0.1708
     87 C           5.1831   -6.4319    0.0000 C.ar    1  UNL1       -0.0017
     88 C          14.4679   -2.5677    0.0000 C.ar    1  UNL1        0.2021
     89 C          19.0856   -1.6656    0.0000 C.ar    1  UNL1        0.1628
     90 C           6.8922    0.0780    0.0000 C.ar    1  UNL1       -0.0023
     91 C           8.3888    0.9498    0.0000 C.ar    1  UNL1       -0.0023
     92 C          20.9978    0.8913    0.0000 C.ar    1  UNL1       -0.0023
     93 C          21.8811    2.3812    0.0000 C.ar    1  UNL1       -0.0023
     94 C           4.3206   -1.8144    0.0000 C.ar    1  UNL1        0.1628
     95 C          18.5648   -2.5677    0.0000 C.ar    1  UNL1        0.2012
     96 C           3.4146   -2.3282    0.0000 C.ar    1  UNL1        0.2012
     97 C          21.0291    4.9528    0.0000 C.ar    1  UNL1       -0.0023
     98 C          20.1689    6.4561    0.0000 C.ar    1  UNL1       -0.0023
     99 C          12.9538    0.0703    0.0000 C.ar    1  UNL1        0.2060
    100 C           3.3830   -6.4250    0.0000 C.ar    1  UNL1        0.2012
    101 C           4.2810   -6.9528    0.0000 C.ar    1  UNL1        0.1628
    102 C          11.4571    0.9421    0.0000 C.ar    1  UNL1        0.1630
    103 C          12.4571    0.9382    0.0000 C.ar    1  UNL1        0.2044
    104 C           7.8855    1.8139    0.0000 C.ar    1  UNL1        0.1628
    105 C           6.3888    0.9421    0.0000 C.ar    1  UNL1        0.1628
    106 C          22.7413    1.8712    0.0000 C.ar    1  UNL1        0.1628
    107 C          21.8580    0.3813    0.0000 C.ar    1  UNL1        0.1628
    108 C          21.0368    6.9528    0.0000 C.ar    1  UNL1        0.1628
    109 C          21.8970    5.4494    0.0000 C.ar    1  UNL1        0.1628
    110 C           6.8855    1.8100    0.0000 C.ar    1  UNL1        0.2006
    111 C          22.7297    0.8712    0.0000 C.ar    1  UNL1        0.2006
    112 C          21.9009    6.4494    0.0000 C.ar    1  UNL1        0.2006
    113 H           7.4633   -2.6842    0.0000 H       1  UNL1        0.0801
    114 H           8.7111   -1.9767    0.0000 H       1  UNL1        0.0812
    115 H          18.0418    1.6002    0.0000 H       1  UNL1        0.0801
    116 H          18.4089    1.8013    0.0000 H       1  UNL1        0.0812
    117 H           8.7952   -5.0328    0.0000 H       1  UNL1        0.0670
    118 H          15.9018    2.8337    0.0000 H       1  UNL1        0.0670
    119 H          10.0638   -2.5178    0.0000 H       1  UNL1        0.0825
    120 H          18.9604    3.1497    0.0000 H       1  UNL1        0.0825
    121 H          10.2604   -3.9614    0.0000 H       1  UNL1        0.0948
    122 H          18.0595    4.2946    0.0000 H       1  UNL1        0.0948
    123 H           7.8702   -5.7723    0.0000 H       1  UNL1        0.0725
    124 H           8.4726   -5.3174    0.0000 H       1  UNL1        0.0725
    125 H          15.6147    2.5132    0.0000 H       1  UNL1        0.0725
    126 H          15.1552    1.9144    0.0000 H       1  UNL1        0.0725
    127 H          11.2613   -3.9724    0.0000 H       1  UNL1        0.2126
    128 H          16.9812    5.2915    0.0000 H       1  UNL1        0.2126
    129 H          18.8616   -0.2271    0.0000 H       1  UNL1        0.0664
    130 H           5.7574   -2.0495    0.0000 H       1  UNL1        0.0664
    131 H          14.1711   -0.2271    0.0000 H       1  UNL1        0.0664
    132 H          10.3338    0.0804    0.0000 H       1  UNL1        0.0665
    133 H           5.7212   -6.7399    0.0000 H       1  UNL1        0.0664
    134 H           6.5842   -0.4601    0.0000 H       1  UNL1        0.0663
    135 H           9.0088    0.9522    0.0000 H       1  UNL1        0.0663
    136 H          20.4573    0.5875    0.0000 H       1  UNL1        0.0663
    137 H          21.8883    3.0011    0.0000 H       1  UNL1        0.0663
    138 H          21.0267    4.3328    0.0000 H       1  UNL1        0.0663
    139 H          19.6331    6.7682    0.0000 H       1  UNL1        0.0663
    140 H          17.3170   -3.9603    0.0000 H       1  UNL1        0.2923
    141 H          15.7157   -3.9603    0.0000 H       1  UNL1        0.2923
    142 H           2.0123   -3.5653    0.0000 H       1  UNL1        0.2923
    143 H           2.0000   -5.1665    0.0000 H       1  UNL1        0.2923
    144 H          13.3513   -3.4380    0.0000 H       1  UNL1        0.2924
    145 H          20.3935   -1.1236    0.0000 H       1  UNL1        0.2923
    146 H           3.7989   -0.4983    0.0000 H       1  UNL1        0.2923
    147 H          19.6815   -3.4380    0.0000 H       1  UNL1        0.2924
    148 H           2.0123   -2.1328    0.0000 H       1  UNL1        0.2924
    149 H          14.2658    0.6022    0.0000 H       1  UNL1        0.2924
    150 H           2.5041   -7.5349    0.0000 H       1  UNL1        0.2924
    151 H           4.8129   -8.2648    0.0000 H       1  UNL1        0.2923
    152 H          10.3405    1.8124    0.0000 H       1  UNL1        0.2923
    153 H          12.6525    2.3405    0.0000 H       1  UNL1        0.2924
    154 H           8.0701    3.2176    0.0000 H       1  UNL1        0.2923
    155 H           5.0768    1.4740    0.0000 H       1  UNL1        0.2923
    156 H          24.1463    2.0449    0.0000 H       1  UNL1        0.2923
    157 H          22.3797   -0.9348    0.0000 H       1  UNL1        0.2923
    158 H          20.5049    8.2648    0.0000 H       1  UNL1        0.2923
    159 H          23.2993    5.2540    0.0000 H       1  UNL1        0.2923
    160 H           5.7622    2.6718    0.0000 H       1  UNL1        0.2924
    161 H          24.1304    0.6650    0.0000 H       1  UNL1        0.2924
    162 H          22.7712    7.5661    0.0000 H       1  UNL1        0.2924
@<TRIPOS>BOND
     1     1    49    1
     2     1    53    1
     3     2    50    1
     4     2    54    1
     5     3    45    1
     6     3    58    1
     7     4    47    1
     8     4    57    1
     9    46     5    1
    10     5    59    1
    11    48     6    1
    12     6    60    1
    13    51     7    1
    14     7    61    1
    15    52     8    1
    16     8    62    1
    17     9    53    1
    18     9   127    1
    19    10    54    1
    20    10   128    1
    21    11    56    1
    22    11    65    1
    23    12    55    1
    24    12    66    1
    25    13    57    2
    26    14    58    2
    27    15    59    2
    28    16    60    2
    29    17    61    2
    30    18    62    2
    31    19    79    1
    32    19    84    1
    33    20    65    2
    34    21    66    2
    35    22    81    1
    36    22   140    1
    37    23    82    1
    38    23   141    1
    39    24    83    1
    40    24   142    1
    41    25    86    1
    42    25   143    1
    43    26    88    1
    44    26   144    1
    45    27    89    1
    46    27   145    1
    47    28    94    1
    48    28   146    1
    49    29    95    1
    50    29   147    1
    51    30    96    1
    52    30   148    1
    53    31    99    1
    54    31   149    1
    55    32   100    1
    56    32   150    1
    57    33   101    1
    58    33   151    1
    59    34   102    1
    60    34   152    1
    61    35   103    1
    62    35   153    1
    63    36   104    1
    64    36   154    1
    65    37   105    1
    66    37   155    1
    67    38   106    1
    68    38   156    1
    69    39   107    1
    70    39   157    1
    71    40   108    1
    72    40   158    1
    73    41   109    1
    74    41   159    1
    75    42   110    1
    76    42   160    1
    77    43   111    1
    78    43   161    1
    79    44   112    1
    80    44   162    1
    81    45    46    1
    82    45    49    1
    83    45   113    1
    84    46    51    1
    85    46   114    1
    86    47    48    1
    87    47    50    1
    88    47   115    1
    89    48    52    1
    90    48   116    1
    91    49    55    1
    92    49   117    1
    93    50    56    1
    94    50   118    1
    95    51    53    1
    96    51   119    1
    97    52    54    1
    98    52   120    1
    99    53   121    1
   100    54   122    1
   101    55   123    1
   102    55   124    1
   103    56   125    1
   104    56   126    1
   105    57    63    1
   106    58    64    1
   107    59    72    1
   108    60    74    1
   109    61    71    1
   110    62    76    1
   111    63    67   ar
   112    63    77   ar
   113    64    69   ar
   114    64    78   ar
   115    65    68    1
   116    66    73    1
   117    67    70    1
   118    67    81   ar
   119    68    70   ar
   120    68    80   ar
   121    69    75    1
   122    69    83   ar
   123    70    82   ar
   124    71    79   ar
   125    71    85   ar
   126    72    90   ar
   127    72    91   ar
   128    73    75   ar
   129    73    87   ar
   130    74    92   ar
   131    74    93   ar
   132    75    86   ar
   133    76    97   ar
   134    76    98   ar
   135    77    89   ar
   136    77   129    1
   137    78    94   ar
   138    78   130    1
   139    79    99   ar
   140    80    84   ar
   141    80   131    1
   142    81    95   ar
   143    82    88   ar
   144    83    96   ar
   145    84    88   ar
   146    85   102   ar
   147    85   132    1
   148    86   100   ar
   149    87   101   ar
   150    87   133    1
   151    89    95   ar
   152    90   105   ar
   153    90   134    1
   154    91   104   ar
   155    91   135    1
   156    92   107   ar
   157    92   136    1
   158    93   106   ar
   159    93   137    1
   160    94    96   ar
   161    97   109   ar
   162    97   138    1
   163    98   108   ar
   164    98   139    1
   165    99   103   ar
   166   100   101   ar
   167   102   103   ar
   168   104   110   ar
   169   105   110   ar
   170   106   111   ar
   171   107   111   ar
   172   108   112   ar
   173   109   112   ar
