@<TRIPOS>MOLECULE
IMPHY004328
 74 78 0 0 0
SMALL
GASTEIGER

@<TRIPOS>ATOM
      1 O           5.1350   -0.5357    0.0000 O.3     1  UNL1       -0.3313
      2 O          12.0632   -2.5357    0.0000 O.3     1  UNL1       -0.3313
      3 O           6.8671   -0.5357    0.0000 O.3     1  UNL1       -0.4532
      4 O           5.1350   -3.5357    0.0000 O.3     1  UNL1       -0.3864
      5 O           3.4030   -2.5357    0.0000 O.3     1  UNL1       -0.3865
      6 O          11.1972   -1.0357    0.0000 O.3     1  UNL1       -0.4572
      7 O           6.8671   -2.5357    0.0000 O.3     1  UNL1       -0.3829
      8 O           9.4651   -4.0357    0.0000 O.3     1  UNL1       -0.3864
      9 O          11.1972   -5.0357    0.0000 O.3     1  UNL1       -0.3865
     10 O           9.4651   -2.0357    0.0000 O.3     1  UNL1       -0.3829
     11 O           2.5369   -1.0357    0.0000 O.3     1  UNL1       -0.3924
     12 O          13.7953   -3.5357    0.0000 O.3     1  UNL1       -0.3924
     13 O           7.7331    1.9643    0.0000 O.2     1  UNL1       -0.4507
     14 O          11.1972    0.9643    0.0000 O.3     1  UNL1       -0.5033
     15 O           5.1350    0.4643    0.0000 O.2     1  UNL1       -0.2830
     16 O           4.2308    1.9612    0.0000 O.3     1  UNL1       -0.5058
     17 O           5.9889    5.0336    0.0000 O.3     1  UNL1       -0.5065
     18 C           5.1350   -2.5357    0.0000 C.3     1  UNL1        0.1152
     19 C           4.2690   -2.0357    0.0000 C.3     1  UNL1        0.1120
     20 C           6.0010   -2.0357    0.0000 C.3     1  UNL1        0.1454
     21 C          10.3312   -3.5357    0.0000 C.3     1  UNL1        0.1152
     22 C           4.2690   -1.0357    0.0000 C.3     1  UNL1        0.1140
     23 C          11.1972   -4.0357    0.0000 C.3     1  UNL1        0.1120
     24 C          10.3312   -2.5357    0.0000 C.3     1  UNL1        0.1454
     25 C          12.0632   -3.5357    0.0000 C.3     1  UNL1        0.1140
     26 C           6.0010   -1.0357    0.0000 C.3     1  UNL1        0.2311
     27 C          11.1972   -2.0357    0.0000 C.3     1  UNL1        0.2310
     28 C           3.4030   -0.5357    0.0000 C.3     1  UNL1        0.0731
     29 C          12.9292   -4.0357    0.0000 C.3     1  UNL1        0.0731
     30 C           6.8671    0.4643    0.0000 C.ar    1  UNL1        0.2138
     31 C          10.3312   -0.5357    0.0000 C.ar    1  UNL1        0.1652
     32 C           7.7331    0.9643    0.0000 C.ar    1  UNL1        0.1810
     33 C           8.5991    0.4643    0.0000 C.ar    1  UNL1        0.0247
     34 C           6.0010    0.9643    0.0000 C.ar    1  UNL1        0.2382
     35 C          10.3312    0.4643    0.0000 C.ar    1  UNL1        0.1592
     36 C           9.4651   -1.0357    0.0000 C.ar    1  UNL1       -0.0155
     37 C           9.4651    0.9643    0.0000 C.ar    1  UNL1       -0.0057
     38 C           8.5991   -0.5357    0.0000 C.ar    1  UNL1       -0.0473
     39 C           6.0010    1.9643    0.0000 C.ar    1  UNL1        0.1092
     40 C           6.8671    2.4643    0.0000 C.ar    1  UNL1        0.1465
     41 C           5.0910    2.4712    0.0000 C.ar    1  UNL1        0.1348
     42 C           6.8831    3.5058    0.0000 C.ar    1  UNL1        0.0231
     43 C           5.0830    3.5128    0.0000 C.ar    1  UNL1        0.0223
     44 C           5.9851    4.0336    0.0000 C.ar    1  UNL1        0.1239
     45 H           4.5981   -2.8457    0.0000 H       1  UNL1        0.0648
     46 H           4.2690   -2.6557    0.0000 H       1  UNL1        0.0647
     47 H           6.0010   -2.6557    0.0000 H       1  UNL1        0.0683
     48 H          10.3312   -4.1557    0.0000 H       1  UNL1        0.0648
     49 H           4.2690   -0.4157    0.0000 H       1  UNL1        0.0647
     50 H          11.7341   -4.3457    0.0000 H       1  UNL1        0.0647
     51 H           9.7942   -2.8457    0.0000 H       1  UNL1        0.0683
     52 H          12.6002   -3.2257    0.0000 H       1  UNL1        0.0647
     53 H           6.0010   -0.4157    0.0000 H       1  UNL1        0.1084
     54 H          10.6603   -1.7257    0.0000 H       1  UNL1        0.1084
     55 H           3.8015   -0.0607    0.0000 H       1  UNL1        0.0584
     56 H           3.0044   -0.0607    0.0000 H       1  UNL1        0.0584
     57 H          12.5307   -4.5106    0.0000 H       1  UNL1        0.0584
     58 H          13.3278   -4.5106    0.0000 H       1  UNL1        0.0584
     59 H           4.5981   -3.8457    0.0000 H       1  UNL1        0.2100
     60 H           3.4030   -3.1557    0.0000 H       1  UNL1        0.2100
     61 H           6.8671   -3.1557    0.0000 H       1  UNL1        0.2102
     62 H           9.4651   -4.6557    0.0000 H       1  UNL1        0.2100
     63 H          11.7341   -5.3457    0.0000 H       1  UNL1        0.2100
     64 H           8.9282   -2.3457    0.0000 H       1  UNL1        0.2102
     65 H           2.0000   -0.7257    0.0000 H       1  UNL1        0.2095
     66 H          14.3322   -3.8457    0.0000 H       1  UNL1        0.2095
     67 H           9.4651   -1.6557    0.0000 H       1  UNL1        0.0655
     68 H           9.4651    1.5843    0.0000 H       1  UNL1        0.0662
     69 H           8.0622   -0.8457    0.0000 H       1  UNL1        0.0626
     70 H           7.4236    3.8096    0.0000 H       1  UNL1        0.0691
     71 H          11.1972    1.5843    0.0000 H       1  UNL1        0.2923
     72 H           4.5449    3.8207    0.0000 H       1  UNL1        0.0691
     73 H           3.6904    2.2650    0.0000 H       1  UNL1        0.2922
     74 H           5.4532    5.3457    0.0000 H       1  UNL1        0.2921
@<TRIPOS>BOND
     1     1    22    1
     2     1    26    1
     3     2    25    1
     4     2    27    1
     5    26     3    1
     6     3    30    1
     7    18     4    1
     8     4    59    1
     9    19     5    1
    10     5    60    1
    11    27     6    1
    12     6    31    1
    13    20     7    1
    14     7    61    1
    15    21     8    1
    16     8    62    1
    17    23     9    1
    18     9    63    1
    19    24    10    1
    20    10    64    1
    21    11    28    1
    22    11    65    1
    23    12    29    1
    24    12    66    1
    25    13    32   ar
    26    13    40   ar
    27    14    35    1
    28    14    71    1
    29    15    34    2
    30    16    41    1
    31    16    73    1
    32    17    44    1
    33    17    74    1
    34    18    19    1
    35    18    20    1
    36    18    45    1
    37    19    22    1
    38    19    46    1
    39    20    26    1
    40    20    47    1
    41    21    23    1
    42    21    24    1
    43    21    48    1
    44    22    28    1
    45    22    49    1
    46    23    25    1
    47    23    50    1
    48    24    27    1
    49    24    51    1
    50    25    29    1
    51    25    52    1
    52    26    53    1
    53    27    54    1
    54    28    55    1
    55    28    56    1
    56    29    57    1
    57    29    58    1
    58    30    32   ar
    59    30    34   ar
    60    31    35   ar
    61    31    36   ar
    62    32    33    1
    63    33    37   ar
    64    33    38   ar
    65    34    39   ar
    66    35    37   ar
    67    36    38   ar
    68    36    67    1
    69    37    68    1
    70    38    69    1
    71    39    40   ar
    72    39    41   ar
    73    40    42   ar
    74    41    43   ar
    75    42    44   ar
    76    42    70    1
    77    43    44   ar
    78    43    72    1
