@<TRIPOS>MOLECULE
IMPHY016107
 37 37 0 0 0
SMALL
GASTEIGER

@<TRIPOS>ATOM
      1 O           3.8660   -3.3100    0.0000 O.2     1  UNL1       -0.2974
      2 O           2.1340    2.6900    0.0000 O.3     1  UNL1       -0.3918
      3 C           3.0000   -0.8100    0.0000 C.3     1  UNL1       -0.0070
      4 C           3.8660   -0.3100    0.0000 C.2     1  UNL1       -0.0641
      5 C           4.7320   -0.8100    0.0000 C.3     1  UNL1       -0.0156
      6 C           3.0000   -1.8100    0.0000 C.3     1  UNL1        0.0147
      7 C           4.7320   -1.8100    0.0000 C.3     1  UNL1        0.0121
      8 C           3.8660   -2.3100    0.0000 C.2     1  UNL1        0.1347
      9 C           2.0000   -0.8100    0.0000 C.3     1  UNL1       -0.0557
     10 C           2.5000    0.0560    0.0000 C.3     1  UNL1       -0.0557
     11 C           3.8660    0.6900    0.0000 C.2     1  UNL1       -0.0816
     12 C           5.5981   -0.3100    0.0000 C.3     1  UNL1       -0.0583
     13 C           3.0000    1.1900    0.0000 C.3     1  UNL1       -0.0086
     14 C           3.0000    2.1900    0.0000 C.3     1  UNL1        0.0559
     15 C           3.8660    2.6900    0.0000 C.3     1  UNL1       -0.0387
     16 H           4.7320   -0.1900    0.0000 H       1  UNL1        0.0347
     17 H           2.3894   -1.7023    0.0000 H       1  UNL1        0.0350
     18 H           2.7880   -2.3926    0.0000 H       1  UNL1        0.0350
     19 H           4.9441   -2.3926    0.0000 H       1  UNL1        0.0347
     20 H           5.3426   -1.7023    0.0000 H       1  UNL1        0.0347
     21 H           2.0000   -0.1900    0.0000 H       1  UNL1        0.0238
     22 H           1.3800   -0.8100    0.0000 H       1  UNL1        0.0238
     23 H           2.0000   -1.4300    0.0000 H       1  UNL1        0.0238
     24 H           3.0369    0.3660    0.0000 H       1  UNL1        0.0238
     25 H           2.1900    0.5930    0.0000 H       1  UNL1        0.0238
     26 H           1.9631   -0.2540    0.0000 H       1  UNL1        0.0238
     27 H           4.4030    1.0000    0.0000 H       1  UNL1        0.0573
     28 H           5.9081   -0.8469    0.0000 H       1  UNL1        0.0236
     29 H           6.1350   -0.0000    0.0000 H       1  UNL1        0.0236
     30 H           5.2881    0.2269    0.0000 H       1  UNL1        0.0236
     31 H           2.3894    1.2977    0.0000 H       1  UNL1        0.0332
     32 H           2.7880    0.6074    0.0000 H       1  UNL1        0.0332
     33 H           3.0000    2.8100    0.0000 H       1  UNL1        0.0593
     34 H           4.1760    2.1531    0.0000 H       1  UNL1        0.0255
     35 H           4.4030    3.0000    0.0000 H       1  UNL1        0.0255
     36 H           3.5560    3.2269    0.0000 H       1  UNL1        0.0255
     37 H           2.1340    3.3100    0.0000 H       1  UNL1        0.2098
@<TRIPOS>BOND
     1     1     8    2
     2     2    14    1
     3     2    37    1
     4     3     4    1
     5     3     6    1
     6     3     9    1
     7     3    10    1
     8     4     5    1
     9     4    11    2
    10     5     7    1
    11     5    12    1
    12     5    16    1
    13     6     8    1
    14     6    17    1
    15     6    18    1
    16     7     8    1
    17     7    19    1
    18     7    20    1
    19     9    21    1
    20     9    22    1
    21     9    23    1
    22    10    24    1
    23    10    25    1
    24    10    26    1
    25    11    13    1
    26    11    27    1
    27    12    28    1
    28    12    29    1
    29    12    30    1
    30    13    14    1
    31    13    31    1
    32    13    32    1
    33    14    15    1
    34    14    33    1
    35    15    34    1
    36    15    35    1
    37    15    36    1
