@<TRIPOS>MOLECULE
IMPHY017363
 35 35 0 0 0
SMALL
GASTEIGER

@<TRIPOS>ATOM
      1 O           2.6200    0.5670    0.0000 O.3     1  UNL1       -0.3845
      2 C           3.1200   -0.2990    0.0000 C.3     1  UNL1        0.0842
      3 C           2.2540   -0.7990    0.0000 C.3     1  UNL1       -0.0204
      4 C           3.9860   -0.7990    0.0000 C.3     1  UNL1       -0.0204
      5 C           2.2540   -1.7990    0.0000 C.3     1  UNL1       -0.0502
      6 C           3.9860   -1.7990    0.0000 C.3     1  UNL1       -0.0502
      7 C           3.1200   -2.2990    0.0000 C.3     1  UNL1       -0.0529
      8 C           3.6200    0.5670    0.0000 C.2     1  UNL1       -0.0568
      9 C           4.6200    0.5670    0.0000 C.2     1  UNL1       -0.0853
     10 C           5.1200    1.4330    0.0000 C.3     1  UNL1       -0.0347
     11 C           6.1200    1.4330    0.0000 C.3     1  UNL1       -0.0499
     12 C           6.6200    2.2990    0.0000 C.3     1  UNL1       -0.0556
     13 C           7.6200    2.2990    0.0000 C.3     1  UNL1       -0.0653
     14 H           2.0419   -0.2164    0.0000 H       1  UNL1        0.0296
     15 H           1.6434   -0.9067    0.0000 H       1  UNL1        0.0296
     16 H           4.5966   -0.9067    0.0000 H       1  UNL1        0.0296
     17 H           4.1981   -0.2164    0.0000 H       1  UNL1        0.0296
     18 H           1.6434   -1.6914    0.0000 H       1  UNL1        0.0266
     19 H           2.0419   -2.3816    0.0000 H       1  UNL1        0.0266
     20 H           4.1981   -2.3816    0.0000 H       1  UNL1        0.0266
     21 H           4.5966   -1.6914    0.0000 H       1  UNL1        0.0266
     22 H           2.7215   -2.7740    0.0000 H       1  UNL1        0.0265
     23 H           3.5185   -2.7740    0.0000 H       1  UNL1        0.0265
     24 H           3.3100    1.1039    0.0000 H       1  UNL1        0.0597
     25 H           2.0000    0.5670    0.0000 H       1  UNL1        0.2106
     26 H           4.9300    0.0301    0.0000 H       1  UNL1        0.0570
     27 H           5.2277    2.0436    0.0000 H       1  UNL1        0.0307
     28 H           4.5374    1.6451    0.0000 H       1  UNL1        0.0307
     29 H           6.0123    0.8224    0.0000 H       1  UNL1        0.0268
     30 H           6.7026    1.2210    0.0000 H       1  UNL1        0.0268
     31 H           6.7277    2.9096    0.0000 H       1  UNL1        0.0263
     32 H           6.0374    2.5111    0.0000 H       1  UNL1        0.0263
     33 H           7.6200    1.6790    0.0000 H       1  UNL1        0.0230
     34 H           8.2400    2.2990    0.0000 H       1  UNL1        0.0230
     35 H           7.6200    2.9190    0.0000 H       1  UNL1        0.0230
@<TRIPOS>BOND
     1     1     2    1
     2     1    25    1
     3     2     3    1
     4     2     4    1
     5     2     8    1
     6     3     5    1
     7     3    14    1
     8     3    15    1
     9     4     6    1
    10     4    16    1
    11     4    17    1
    12     5     7    1
    13     5    18    1
    14     5    19    1
    15     6     7    1
    16     6    20    1
    17     6    21    1
    18     7    22    1
    19     7    23    1
    20     8     9    2
    21     8    24    1
    22     9    10    1
    23     9    26    1
    24    10    11    1
    25    10    27    1
    26    10    28    1
    27    11    12    1
    28    11    29    1
    29    11    30    1
    30    12    13    1
    31    12    31    1
    32    12    32    1
    33    13    33    1
    34    13    34    1
    35    13    35    1
