@<TRIPOS>MOLECULE
IMPHY016947
 22 21 0 0 0
SMALL
GASTEIGER

@<TRIPOS>ATOM
      1 O           2.5369    0.2500    0.0000 O.3     1  UNL1       -0.3892
      2 O           5.1350   -0.2500    0.0000 O.3     1  UNL1       -0.3892
      3 C           3.4030   -0.2500    0.0000 C.3     1  UNL1        0.0808
      4 C           4.2690    0.2500    0.0000 C.3     1  UNL1        0.0808
      5 C           3.4030   -1.2500    0.0000 C.3     1  UNL1       -0.0273
      6 C           4.2690    1.2500    0.0000 C.3     1  UNL1       -0.0273
      7 C           2.5369   -1.7500    0.0000 C.3     1  UNL1       -0.0629
      8 C           5.1350    1.7500    0.0000 C.3     1  UNL1       -0.0629
      9 H           3.4030    0.3700    0.0000 H       1  UNL1        0.0619
     10 H           4.2690   -0.3700    0.0000 H       1  UNL1        0.0619
     11 H           3.6150   -1.8326    0.0000 H       1  UNL1        0.0288
     12 H           4.0135   -1.1423    0.0000 H       1  UNL1        0.0288
     13 H           4.0569    1.8326    0.0000 H       1  UNL1        0.0288
     14 H           3.6584    1.1423    0.0000 H       1  UNL1        0.0288
     15 H           2.2269   -1.2131    0.0000 H       1  UNL1        0.0231
     16 H           2.0000   -2.0600    0.0000 H       1  UNL1        0.0231
     17 H           2.8469   -2.2869    0.0000 H       1  UNL1        0.0231
     18 H           5.4450    1.2131    0.0000 H       1  UNL1        0.0231
     19 H           5.6720    2.0600    0.0000 H       1  UNL1        0.0231
     20 H           4.8250    2.2869    0.0000 H       1  UNL1        0.0231
     21 H           2.0000   -0.0600    0.0000 H       1  UNL1        0.2099
     22 H           5.6720    0.0600    0.0000 H       1  UNL1        0.2099
@<TRIPOS>BOND
     1     1     3    1
     2     1    21    1
     3     2     4    1
     4     2    22    1
     5     3     4    1
     6     3     5    1
     7     3     9    1
     8     4     6    1
     9     4    10    1
    10     5     7    1
    11     5    11    1
    12     5    12    1
    13     6     8    1
    14     6    13    1
    15     6    14    1
    16     7    15    1
    17     7    16    1
    18     7    17    1
    19     8    18    1
    20     8    19    1
    21     8    20    1
