@<TRIPOS>MOLECULE
IMPHY006877
 43 43 0 0 0
SMALL
GASTEIGER

@<TRIPOS>ATOM
      1 O           9.0991    0.6340    0.0000 O.3     1  UNL1       -0.3673
      2 O           2.5369   -0.0000    0.0000 O.3     1  UNL1       -0.3757
      3 C           9.5991    1.5000    0.0000 C.3     1  UNL1        0.0862
      4 C           8.5991    1.5000    0.0000 C.3     1  UNL1        0.0960
      5 C          10.4651    2.0000    0.0000 C.3     1  UNL1       -0.0241
      6 C          11.3312    1.5000    0.0000 C.3     1  UNL1       -0.0506
      7 C           7.7331    2.0000    0.0000 C.3     1  UNL1        0.0388
      8 C          12.1972    2.0000    0.0000 C.3     1  UNL1       -0.0530
      9 C          13.0632    1.5000    0.0000 C.3     1  UNL1       -0.0531
     10 C          13.9292    2.0000    0.0000 C.3     1  UNL1       -0.0533
     11 C           6.8671    1.5000    0.0000 C.1     1  UNL1       -0.0858
     12 C          14.7953    1.5000    0.0000 C.3     1  UNL1       -0.0559
     13 C          15.6613    2.0000    0.0000 C.3     1  UNL1       -0.0653
     14 C           6.0010    1.0000    0.0000 C.1     1  UNL1       -0.0147
     15 C           5.1350    0.5000    0.0000 C.1     1  UNL1       -0.0119
     16 C           4.2690   -0.0000    0.0000 C.1     1  UNL1       -0.0529
     17 C           3.4030   -0.5000    0.0000 C.3     1  UNL1        0.1348
     18 C           3.4030   -1.5000    0.0000 C.2     1  UNL1       -0.0510
     19 C           2.5369   -2.0000    0.0000 C.2     1  UNL1       -0.0993
     20 H          10.0375    1.0616    0.0000 H       1  UNL1        0.0622
     21 H           8.1607    1.0616    0.0000 H       1  UNL1        0.0631
     22 H          10.8637    2.4750    0.0000 H       1  UNL1        0.0291
     23 H          10.0666    2.4750    0.0000 H       1  UNL1        0.0291
     24 H          10.9326    1.0250    0.0000 H       1  UNL1        0.0266
     25 H          11.7297    1.0250    0.0000 H       1  UNL1        0.0266
     26 H           8.1316    2.4750    0.0000 H       1  UNL1        0.0424
     27 H           7.3346    2.4750    0.0000 H       1  UNL1        0.0424
     28 H          12.5957    2.4750    0.0000 H       1  UNL1        0.0265
     29 H          11.7987    2.4750    0.0000 H       1  UNL1        0.0265
     30 H          12.6647    1.0250    0.0000 H       1  UNL1        0.0265
     31 H          13.4617    1.0250    0.0000 H       1  UNL1        0.0265
     32 H          14.3278    2.4750    0.0000 H       1  UNL1        0.0265
     33 H          13.5307    2.4750    0.0000 H       1  UNL1        0.0265
     34 H          14.3967    1.0250    0.0000 H       1  UNL1        0.0263
     35 H          15.1938    1.0250    0.0000 H       1  UNL1        0.0263
     36 H          15.9713    1.4631    0.0000 H       1  UNL1        0.0230
     37 H          16.1982    2.3100    0.0000 H       1  UNL1        0.0230
     38 H          15.3513    2.5369    0.0000 H       1  UNL1        0.0230
     39 H           3.4030    0.1200    0.0000 H       1  UNL1        0.0777
     40 H           3.9399   -1.8100    0.0000 H       1  UNL1        0.0601
     41 H           2.0000   -0.3100    0.0000 H       1  UNL1        0.2114
     42 H           2.0000   -1.6900    0.0000 H       1  UNL1        0.0533
     43 H           2.5369   -2.6200    0.0000 H       1  UNL1        0.0533
@<TRIPOS>BOND
     1     1     3    1
     2     1     4    1
     3    17     2    1
     4     2    41    1
     5     3     4    1
     6     3     5    1
     7     3    20    1
     8     4     7    1
     9     4    21    1
    10     5     6    1
    11     5    22    1
    12     5    23    1
    13     6     8    1
    14     6    24    1
    15     6    25    1
    16     7    11    1
    17     7    26    1
    18     7    27    1
    19     8     9    1
    20     8    28    1
    21     8    29    1
    22     9    10    1
    23     9    30    1
    24     9    31    1
    25    10    12    1
    26    10    32    1
    27    10    33    1
    28    11    14    3
    29    12    13    1
    30    12    34    1
    31    12    35    1
    32    13    36    1
    33    13    37    1
    34    13    38    1
    35    14    15    1
    36    15    16    3
    37    16    17    1
    38    17    18    1
    39    17    39    1
    40    18    19    2
    41    18    40    1
    42    19    42    1
    43    19    43    1
