@<TRIPOS>MOLECULE
IMPHY001988
 73 77 0 0 0
SMALL
GASTEIGER

@<TRIPOS>ATOM
      1 O           6.8671   -2.4050    0.0000 O.3     1  UNL1       -0.3396
      2 O           5.1350   -2.4050    0.0000 O.3     1  UNL1       -0.3405
      3 O           7.7331    0.0950    0.0000 O.3     1  UNL1       -0.3221
      4 O           5.1350   -1.4050    0.0000 O.3     1  UNL1       -0.3863
      5 O           6.8671   -4.4050    0.0000 O.3     1  UNL1       -0.3841
      6 O           5.1350   -5.4050    0.0000 O.3     1  UNL1       -0.3864
      7 O           3.4030   -4.4050    0.0000 O.3     1  UNL1       -0.3865
      8 O           6.8671    1.5950    0.0000 O.3     1  UNL1       -0.4532
      9 O           5.1350    0.5950    0.0000 O.3     1  UNL1       -0.3829
     10 O           2.5369   -2.9050    0.0000 O.3     1  UNL1       -0.3924
     11 O           9.4651   -0.9050    0.0000 O.3     1  UNL1       -0.4788
     12 O           8.5991   -2.4050    0.0000 O.2     1  UNL1       -0.2480
     13 O           8.5991    3.5950    0.0000 O.2     1  UNL1       -0.4507
     14 O           8.5991    0.5950    0.0000 O.2     1  UNL1       -0.2830
     15 O          10.3475    0.5604    0.0000 O.3     1  UNL1       -0.5058
     16 O          12.1292    3.6192    0.0000 O.3     1  UNL1       -0.5065
     17 O           4.2690    3.0950    0.0000 O.3     1  UNL1       -0.5033
     18 O           4.2690    5.0950    0.0000 O.3     1  UNL1       -0.5033
     19 C           6.8671   -1.4050    0.0000 C.3     1  UNL1        0.1267
     20 C           6.0010   -2.9050    0.0000 C.3     1  UNL1        0.1885
     21 C           6.0010   -0.9050    0.0000 C.3     1  UNL1        0.1160
     22 C           6.0010   -3.9050    0.0000 C.3     1  UNL1        0.1341
     23 C           5.1350   -4.4050    0.0000 C.3     1  UNL1        0.1141
     24 C           4.2690   -3.9050    0.0000 C.3     1  UNL1        0.1119
     25 C           7.7331   -0.9050    0.0000 C.3     1  UNL1        0.1873
     26 C           6.0010    0.0950    0.0000 C.3     1  UNL1        0.1455
     27 C           4.2690   -2.9050    0.0000 C.3     1  UNL1        0.1130
     28 C           6.8671    0.5950    0.0000 C.3     1  UNL1        0.2316
     29 C           3.4030   -2.4050    0.0000 C.3     1  UNL1        0.0730
     30 C           8.5991   -1.4050    0.0000 C.2     1  UNL1        0.3367
     31 C           7.7331    2.0950    0.0000 C.ar    1  UNL1        0.2138
     32 C           7.7331    3.0950    0.0000 C.ar    1  UNL1        0.1810
     33 C           8.5991    1.5950    0.0000 C.ar    1  UNL1        0.2382
     34 C           9.4651    2.0950    0.0000 C.ar    1  UNL1        0.1092
     35 C           6.8671    3.5950    0.0000 C.ar    1  UNL1        0.0247
     36 C           9.4651    3.0950    0.0000 C.ar    1  UNL1        0.1465
     37 C          10.3591    1.5603    0.0000 C.ar    1  UNL1        0.1348
     38 C          10.3591    3.6297    0.0000 C.ar    1  UNL1        0.0231
     39 C           6.0010    3.0950    0.0000 C.ar    1  UNL1       -0.0057
     40 C           6.8671    4.5950    0.0000 C.ar    1  UNL1       -0.0473
     41 C          11.2651    2.0742    0.0000 C.ar    1  UNL1        0.0223
     42 C          11.2651    3.1158    0.0000 C.ar    1  UNL1        0.1239
     43 C           5.1350    3.5950    0.0000 C.ar    1  UNL1        0.1589
     44 C           6.0010    5.0950    0.0000 C.ar    1  UNL1       -0.0159
     45 C           5.1350    4.5950    0.0000 C.ar    1  UNL1        0.1583
     46 H           7.4040   -1.7150    0.0000 H       1  UNL1        0.0656
     47 H           6.0010   -2.2850    0.0000 H       1  UNL1        0.0938
     48 H           6.0010   -1.5250    0.0000 H       1  UNL1        0.0648
     49 H           6.5380   -3.5950    0.0000 H       1  UNL1        0.0671
     50 H           5.6720   -4.7150    0.0000 H       1  UNL1        0.0648
     51 H           3.7320   -3.5950    0.0000 H       1  UNL1        0.0647
     52 H           8.2700   -0.5950    0.0000 H       1  UNL1        0.0742
     53 H           6.0010    0.7150    0.0000 H       1  UNL1        0.0683
     54 H           4.2690   -2.2850    0.0000 H       1  UNL1        0.0647
     55 H           6.3301    0.9050    0.0000 H       1  UNL1        0.1084
     56 H           3.8015   -1.9300    0.0000 H       1  UNL1        0.0584
     57 H           3.0044   -1.9300    0.0000 H       1  UNL1        0.0584
     58 H           4.5981   -1.0950    0.0000 H       1  UNL1        0.2100
     59 H           7.4040   -4.0950    0.0000 H       1  UNL1        0.2101
     60 H           5.6720   -5.7150    0.0000 H       1  UNL1        0.2100
     61 H           3.4030   -5.0250    0.0000 H       1  UNL1        0.2100
     62 H           5.1350    1.2150    0.0000 H       1  UNL1        0.2102
     63 H           2.0000   -2.5950    0.0000 H       1  UNL1        0.2095
     64 H          10.0021   -1.2150    0.0000 H       1  UNL1        0.2951
     65 H          10.3519    4.2496    0.0000 H       1  UNL1        0.0691
     66 H           6.0010    2.4750    0.0000 H       1  UNL1        0.0662
     67 H           7.4040    4.9050    0.0000 H       1  UNL1        0.0626
     68 H          11.8009    1.7621    0.0000 H       1  UNL1        0.0691
     69 H           6.0010    5.7150    0.0000 H       1  UNL1        0.0655
     70 H          10.8808    0.2442    0.0000 H       1  UNL1        0.2922
     71 H          12.6674    3.3112    0.0000 H       1  UNL1        0.2921
     72 H           3.7320    3.4050    0.0000 H       1  UNL1        0.2923
     73 H           4.2690    5.7150    0.0000 H       1  UNL1        0.2923
@<TRIPOS>BOND
     1    19     1    1
     2    20     1    1
     3     2    20    1
     4     2    27    1
     5     3    25    1
     6     3    28    1
     7    21     4    1
     8     4    58    1
     9    22     5    1
    10     5    59    1
    11    23     6    1
    12     6    60    1
    13    24     7    1
    14     7    61    1
    15    28     8    1
    16     8    31    1
    17    26     9    1
    18     9    62    1
    19    10    29    1
    20    10    63    1
    21    11    30    1
    22    11    64    1
    23    12    30    2
    24    13    32   ar
    25    13    36   ar
    26    14    33    2
    27    15    37    1
    28    15    70    1
    29    16    42    1
    30    16    71    1
    31    17    43    1
    32    17    72    1
    33    18    45    1
    34    18    73    1
    35    19    21    1
    36    19    25    1
    37    19    46    1
    38    20    22    1
    39    20    47    1
    40    21    26    1
    41    21    48    1
    42    22    23    1
    43    22    49    1
    44    23    24    1
    45    23    50    1
    46    24    27    1
    47    24    51    1
    48    25    30    1
    49    25    52    1
    50    26    28    1
    51    26    53    1
    52    27    29    1
    53    27    54    1
    54    28    55    1
    55    29    56    1
    56    29    57    1
    57    31    32   ar
    58    31    33   ar
    59    32    35    1
    60    33    34   ar
    61    34    36   ar
    62    34    37   ar
    63    35    39   ar
    64    35    40   ar
    65    36    38   ar
    66    37    41   ar
    67    38    42   ar
    68    38    65    1
    69    39    43   ar
    70    39    66    1
    71    40    44   ar
    72    40    67    1
    73    41    42   ar
    74    41    68    1
    75    43    45   ar
    76    44    45   ar
    77    44    69    1
