@<TRIPOS>MOLECULE
IMPHY017953
 11 10 0 0 0
SMALL
GASTEIGER

@<TRIPOS>ATOM
      1 C           0.0000   -1.9933    0.0000 C.2     1  UNL1       -0.0003
      2 C           1.1540   -1.3316    0.0000 C.2     1  UNL1       -0.0018
      3 C           2.3081   -1.9933    0.0000 C.2     1  UNL1        0.0080
      4 C           2.3081   -3.3249    0.0000 C.2     1  UNL1       -0.0021
      5 C           3.4621   -1.3316    0.0000 C.3     1  UNL1        0.1785
      6 O           3.4621    0.0000    0.0000 O.3     1  UNL1       -0.2179
      7 C           4.6081   -1.9933    0.0000 C.3     1  UNL1        0.0628
      8 C           5.7622   -1.3316    0.0000 C.2     1  UNL1       -0.0316
      9 C           6.9162   -1.9933    0.0000 C.2     1  UNL1       -0.0478
     10 C           8.0702   -1.3316    0.0000 C.3     1  UNL1        0.0260
     11 C           6.9162   -3.3249    0.0000 C.3     1  UNL1        0.0260
@<TRIPOS>BOND
     1     1     2    2
     2     2     3    1
     3     3     4    2
     4     3     5    1
     5     5     6    1
     6     5     7    1
     7     7     8    1
     8     8     9    2
     9     9    10    1
    10     9    11    1
