@<TRIPOS>MOLECULE
IMPHY007395
 141 149 0 0 0
SMALL
GASTEIGER

@<TRIPOS>ATOM
      1 O           5.9348    4.5666    0.0000 O.3     1  UNL1       -0.3476
      2 O           6.7788    6.1114    0.0000 O.3     1  UNL1       -0.3409
      3 O           9.5748    5.0759    0.0000 O.3     1  UNL1       -0.3883
      4 O           7.7331   -2.8259    0.0000 O.3     1  UNL1       -0.3449
      5 O           6.0010   -2.8259    0.0000 O.3     1  UNL1       -0.3405
      6 O           7.7331   -4.8258    0.0000 O.3     1  UNL1       -0.3377
      7 O           6.0010   -5.8258    0.0000 O.3     1  UNL1       -0.3400
      8 O           4.2690   -4.8258    0.0000 O.3     1  UNL1       -0.3865
      9 O           8.7036   -3.3313    0.0000 O.3     1  UNL1       -0.3405
     10 O           4.2690   -1.8258    0.0000 O.3     1  UNL1       -0.3924
     11 O           4.2690   -5.8258    0.0000 O.3     1  UNL1       -0.3405
     12 O           9.7206   -5.7107    0.0000 O.3     1  UNL1       -0.3841
     13 O          11.1763   -4.0940    0.0000 O.3     1  UNL1       -0.3864
     14 O           6.0010   -7.8258    0.0000 O.3     1  UNL1       -0.3841
     15 O           4.2690   -8.8259    0.0000 O.3     1  UNL1       -0.3864
     16 O           9.5007   -1.4009    0.0000 O.3     1  UNL1       -0.3924
     17 O           2.5369   -7.8258    0.0000 O.3     1  UNL1       -0.3865
     18 O           2.5369   -4.8258    0.0000 O.3     1  UNL1       -0.3924
     19 C           6.8066    3.0700    0.0000 C.3     1  UNL1        0.0081
     20 C           6.7945    2.0284    0.0000 C.3     1  UNL1       -0.0206
     21 C           7.6706    3.5733    0.0000 C.3     1  UNL1       -0.0223
     22 C           7.6946    1.5041    0.0000 C.3     1  UNL1       -0.0294
     23 C           7.6668    4.5733    0.0000 C.3     1  UNL1        0.0452
     24 C           6.7988    5.0700    0.0000 C.3     1  UNL1        0.1770
     25 C           7.1687    4.0714    0.0000 C.3     1  UNL1        0.0103
     26 C           7.7071    0.4192    0.0000 C.3     1  UNL1       -0.0252
     27 C           5.9386    3.5666    0.0000 C.3     1  UNL1        0.0575
     28 C           8.5826    3.0700    0.0000 C.3     1  UNL1       -0.0488
     29 C           5.8446    1.5041    0.0000 C.3     1  UNL1       -0.0465
     30 C           6.7696   -0.1269    0.0000 C.3     1  UNL1       -0.0278
     31 C           8.5946    2.0284    0.0000 C.3     1  UNL1       -0.0489
     32 C           8.5748    5.0836    0.0000 C.3     1  UNL1        0.0739
     33 C           5.8321    0.4192    0.0000 C.3     1  UNL1       -0.0486
     34 C           5.9304    2.5317    0.0000 C.3     1  UNL1       -0.0587
     35 C           6.7565   -1.2570    0.0000 C.3     1  UNL1       -0.0052
     36 C           8.6966   -0.1269    0.0000 C.3     1  UNL1       -0.0447
     37 C           8.5712    0.9225    0.0000 C.3     1  UNL1       -0.0590
     38 C           8.5788    6.1253    0.0000 C.3     1  UNL1        0.0063
     39 C           7.7331   -1.8258    0.0000 C.3     1  UNL1        0.0672
     40 C           8.7096   -1.2570    0.0000 C.3     1  UNL1       -0.0255
     41 C           7.6748    6.6426    0.0000 C.3     1  UNL1        0.0829
     42 C           9.0681    4.2138    0.0000 C.3     1  UNL1       -0.0355
     43 C           5.7566   -1.2493    0.0000 C.3     1  UNL1       -0.0572
     44 C           6.2499   -2.1192    0.0000 C.3     1  UNL1       -0.0572
     45 C           7.6671    7.6426    0.0000 C.2     1  UNL1       -0.0567
     46 C           6.8671   -3.3259    0.0000 C.3     1  UNL1        0.1886
     47 C           6.7972    8.1359    0.0000 C.2     1  UNL1       -0.0772
     48 C           6.8671   -4.3258    0.0000 C.3     1  UNL1        0.1410
     49 C           6.7895    9.1358    0.0000 C.3     1  UNL1       -0.0440
     50 C           5.9351    7.6292    0.0000 C.3     1  UNL1       -0.0440
     51 C           6.0010   -4.8258    0.0000 C.3     1  UNL1        0.1209
     52 C           5.1350   -3.3259    0.0000 C.3     1  UNL1        0.1130
     53 C           5.1350   -4.3258    0.0000 C.3     1  UNL1        0.1123
     54 C           4.2690   -2.8259    0.0000 C.3     1  UNL1        0.0730
     55 C           8.5991   -4.3258    0.0000 C.3     1  UNL1        0.1885
     56 C           5.1350   -6.3258    0.0000 C.3     1  UNL1        0.1884
     57 C           9.5127   -4.7326    0.0000 C.3     1  UNL1        0.1341
     58 C          10.1818   -3.9894    0.0000 C.3     1  UNL1        0.1141
     59 C           9.6818   -3.1234    0.0000 C.3     1  UNL1        0.1131
     60 C           5.1350   -7.3258    0.0000 C.3     1  UNL1        0.1341
     61 C           4.2690   -7.8258    0.0000 C.3     1  UNL1        0.1141
     62 C           3.4030   -6.3258    0.0000 C.3     1  UNL1        0.1130
     63 C          10.0885   -2.2099    0.0000 C.3     1  UNL1        0.0730
     64 C           3.4030   -7.3258    0.0000 C.3     1  UNL1        0.1119
     65 C           2.5369   -5.8258    0.0000 C.3     1  UNL1        0.0730
     66 H           8.5072    3.7241    0.0000 H       1  UNL1        0.0312
     67 H           8.4340    1.0848    0.0000 H       1  UNL1        0.0312
     68 H           8.5044    4.4289    0.0000 H       1  UNL1        0.0384
     69 H           7.6672    3.7028    0.0000 H       1  UNL1        0.0323
     70 H           7.6644    4.4438    0.0000 H       1  UNL1        0.0323
     71 H           5.3276    3.6719    0.0000 H       1  UNL1        0.0567
     72 H           5.7288    2.9832    0.0000 H       1  UNL1        0.0567
     73 H           9.1946    2.9710    0.0000 H       1  UNL1        0.0268
     74 H           8.7849    3.6560    0.0000 H       1  UNL1        0.0268
     75 H           5.6423    2.0902    0.0000 H       1  UNL1        0.0271
     76 H           5.2326    1.4051    0.0000 H       1  UNL1        0.0271
     77 H           6.0302   -0.5462    0.0000 H       1  UNL1        0.0312
     78 H           8.8104    1.4472    0.0000 H       1  UNL1        0.0268
     79 H           9.2042    2.1416    0.0000 H       1  UNL1        0.0268
     80 H           5.2225    0.5323    0.0000 H       1  UNL1        0.0268
     81 H           5.6163   -0.1620    0.0000 H       1  UNL1        0.0268
     82 H           6.2425    3.0675    0.0000 H       1  UNL1        0.0235
     83 H           5.3947    2.8438    0.0000 H       1  UNL1        0.0235
     84 H           5.6184    1.9960    0.0000 H       1  UNL1        0.0235
     85 H           9.3086   -0.2259    0.0000 H       1  UNL1        0.0271
     86 H           8.8989    0.4592    0.0000 H       1  UNL1        0.0271
     87 H           8.8833    0.3868    0.0000 H       1  UNL1        0.0235
     88 H           9.1070    1.2346    0.0000 H       1  UNL1        0.0235
     89 H           8.2592    1.4583    0.0000 H       1  UNL1        0.0235
     90 H           9.1893    6.0168    0.0000 H       1  UNL1        0.0321
     91 H           8.7902    6.7082    0.0000 H       1  UNL1        0.0321
     92 H           7.1956   -2.1348    0.0000 H       1  UNL1        0.0602
     93 H           8.9254   -1.8382    0.0000 H       1  UNL1        0.0290
     94 H           9.3192   -1.1439    0.0000 H       1  UNL1        0.0290
     95 H           7.1349    6.9474    0.0000 H       1  UNL1        0.0642
     96 H           8.5288    3.9079    0.0000 H       1  UNL1        0.0257
     97 H           9.3740    3.6745    0.0000 H       1  UNL1        0.0257
     98 H           9.6075    4.5197    0.0000 H       1  UNL1        0.0257
     99 H           5.7153   -1.8050    0.0000 H       1  UNL1        0.0236
    100 H           5.9357   -2.6537    0.0000 H       1  UNL1        0.0236
    101 H           6.7844   -2.4333    0.0000 H       1  UNL1        0.0236
    102 H           5.7613   -0.6293    0.0000 H       1  UNL1        0.0236
    103 H           5.1366   -1.2445    0.0000 H       1  UNL1        0.0236
    104 H           5.7518   -1.8693    0.0000 H       1  UNL1        0.0236
    105 H           9.8889    5.6105    0.0000 H       1  UNL1        0.2102
    106 H           8.2016    7.9567    0.0000 H       1  UNL1        0.0597
    107 H           7.4040   -3.6358    0.0000 H       1  UNL1        0.0938
    108 H           6.8671   -4.9458    0.0000 H       1  UNL1        0.0675
    109 H           7.4095    9.1406    0.0000 H       1  UNL1        0.0274
    110 H           6.7847    9.7558    0.0000 H       1  UNL1        0.0274
    111 H           6.1695    9.1311    0.0000 H       1  UNL1        0.0274
    112 H           5.6209    8.1638    0.0000 H       1  UNL1        0.0274
    113 H           5.4005    7.3151    0.0000 H       1  UNL1        0.0274
    114 H           6.2492    7.0947    0.0000 H       1  UNL1        0.0274
    115 H           5.4641   -5.1358    0.0000 H       1  UNL1        0.0651
    116 H           5.1350   -2.7059    0.0000 H       1  UNL1        0.0647
    117 H           4.5981   -4.0158    0.0000 H       1  UNL1        0.0647
    118 H           3.6584   -2.7182    0.0000 H       1  UNL1        0.0584
    119 H           4.0569   -3.4085    0.0000 H       1  UNL1        0.0584
    120 H           8.0791   -3.9882    0.0000 H       1  UNL1        0.0938
    121 H           3.7320   -4.5158    0.0000 H       1  UNL1        0.2100
    122 H           5.1350   -5.7058    0.0000 H       1  UNL1        0.0938
    123 H          10.1115   -4.8931    0.0000 H       1  UNL1        0.0671
    124 H          10.4040   -4.5683    0.0000 H       1  UNL1        0.0648
    125 H           3.7320   -1.5158    0.0000 H       1  UNL1        0.2095
    126 H           9.2916   -2.6416    0.0000 H       1  UNL1        0.0647
    127 H           5.1350   -7.9458    0.0000 H       1  UNL1        0.0671
    128 H           3.7320   -8.1358    0.0000 H       1  UNL1        0.0648
    129 H          10.3102   -5.9023    0.0000 H       1  UNL1        0.2101
    130 H           3.4030   -5.7058    0.0000 H       1  UNL1        0.0647
    131 H          10.6025   -2.5566    0.0000 H       1  UNL1        0.0584
    132 H          10.5192   -1.7639    0.0000 H       1  UNL1        0.0584
    133 H           2.8660   -7.0158    0.0000 H       1  UNL1        0.0647
    134 H          11.5407   -3.5924    0.0000 H       1  UNL1        0.2100
    135 H           6.0010   -8.4459    0.0000 H       1  UNL1        0.2101
    136 H           1.9264   -5.7182    0.0000 H       1  UNL1        0.0584
    137 H           2.3249   -6.4085    0.0000 H       1  UNL1        0.0584
    138 H           3.7320   -9.1358    0.0000 H       1  UNL1        0.2100
    139 H           9.7529   -0.8345    0.0000 H       1  UNL1        0.2095
    140 H           2.0000   -7.5158    0.0000 H       1  UNL1        0.2100
    141 H           2.0000   -4.5158    0.0000 H       1  UNL1        0.2095
@<TRIPOS>BOND
     1     1    24    1
     2     1    27    1
     3    24     2    1
     4     2    41    1
     5    32     3    1
     6     3   105    1
     7    39     4    1
     8    46     4    1
     9     5    46    1
    10     5    52    1
    11    48     6    1
    12    55     6    1
    13    51     7    1
    14    56     7    1
    15    53     8    1
    16     8   121    1
    17     9    55    1
    18     9    59    1
    19    10    54    1
    20    10   125    1
    21    11    56    1
    22    11    62    1
    23    57    12    1
    24    12   129    1
    25    58    13    1
    26    13   134    1
    27    60    14    1
    28    14   135    1
    29    61    15    1
    30    15   138    1
    31    16    63    1
    32    16   139    1
    33    64    17    1
    34    17   140    1
    35    18    65    1
    36    18   141    1
    37    19    20    1
    38    19    21    1
    39    19    25    1
    40    19    27    1
    41    20    22    1
    42    20    29    1
    43    20    34    1
    44    21    23    1
    45    21    28    1
    46    21    66    1
    47    22    26    1
    48    22    31    1
    49    22    67    1
    50    23    24    1
    51    23    32    1
    52    23    68    1
    53    24    25    1
    54    25    69    1
    55    25    70    1
    56    26    30    1
    57    26    36    1
    58    26    37    1
    59    27    71    1
    60    27    72    1
    61    28    31    1
    62    28    73    1
    63    28    74    1
    64    29    33    1
    65    29    75    1
    66    29    76    1
    67    30    33    1
    68    30    35    1
    69    30    77    1
    70    31    78    1
    71    31    79    1
    72    32    38    1
    73    32    42    1
    74    33    80    1
    75    33    81    1
    76    34    82    1
    77    34    83    1
    78    34    84    1
    79    35    39    1
    80    35    43    1
    81    35    44    1
    82    36    40    1
    83    36    85    1
    84    36    86    1
    85    37    87    1
    86    37    88    1
    87    37    89    1
    88    38    41    1
    89    38    90    1
    90    38    91    1
    91    39    40    1
    92    39    92    1
    93    40    93    1
    94    40    94    1
    95    41    45    1
    96    41    95    1
    97    42    96    1
    98    42    97    1
    99    42    98    1
   100    43   102    1
   101    43   103    1
   102    43   104    1
   103    44    99    1
   104    44   100    1
   105    44   101    1
   106    45    47    2
   107    45   106    1
   108    46    48    1
   109    46   107    1
   110    47    49    1
   111    47    50    1
   112    48    51    1
   113    48   108    1
   114    49   109    1
   115    49   110    1
   116    49   111    1
   117    50   112    1
   118    50   113    1
   119    50   114    1
   120    51    53    1
   121    51   115    1
   122    52    53    1
   123    52    54    1
   124    52   116    1
   125    53   117    1
   126    54   118    1
   127    54   119    1
   128    55    57    1
   129    55   120    1
   130    56    60    1
   131    56   122    1
   132    57    58    1
   133    57   123    1
   134    58    59    1
   135    58   124    1
   136    59    63    1
   137    59   126    1
   138    60    61    1
   139    60   127    1
   140    61    64    1
   141    61   128    1
   142    62    64    1
   143    62    65    1
   144    62   130    1
   145    63   131    1
   146    63   132    1
   147    64   133    1
   148    65   136    1
   149    65   137    1
