@<TRIPOS>MOLECULE
IMPHY017352
 17 16 0 0 0
SMALL
GASTEIGER

@<TRIPOS>ATOM
      1 O           2.8660   -1.0600    0.0000 O.2     1  UNL1       -0.2974
      2 C           3.7320    0.4400    0.0000 C.3     1  UNL1        0.0237
      3 C           2.8660   -0.0600    0.0000 C.2     1  UNL1        0.1340
      4 C           4.5981   -0.0600    0.0000 C.2     1  UNL1       -0.0811
      5 C           2.0000    0.4400    0.0000 C.3     1  UNL1       -0.0058
      6 C           5.4641    0.4400    0.0000 C.2     1  UNL1       -0.0906
      7 C           6.3301   -0.0600    0.0000 C.3     1  UNL1       -0.0468
      8 H           4.1306    0.9149    0.0000 H       1  UNL1        0.0384
      9 H           3.3335    0.9149    0.0000 H       1  UNL1        0.0384
     10 H           4.5981   -0.6800    0.0000 H       1  UNL1        0.0573
     11 H           2.3100    0.9769    0.0000 H       1  UNL1        0.0306
     12 H           1.4631    0.7500    0.0000 H       1  UNL1        0.0306
     13 H           1.6900   -0.0969    0.0000 H       1  UNL1        0.0306
     14 H           5.4641    1.0600    0.0000 H       1  UNL1        0.0566
     15 H           6.0201   -0.5969    0.0000 H       1  UNL1        0.0272
     16 H           6.8671   -0.3700    0.0000 H       1  UNL1        0.0272
     17 H           6.6401    0.4769    0.0000 H       1  UNL1        0.0272
@<TRIPOS>BOND
     1     1     3    2
     2     2     3    1
     3     2     4    1
     4     2     8    1
     5     2     9    1
     6     3     5    1
     7     4     6    2
     8     4    10    1
     9     5    11    1
    10     5    12    1
    11     5    13    1
    12     6     7    1
    13     6    14    1
    14     7    15    1
    15     7    16    1
    16     7    17    1
