@<TRIPOS>MOLECULE
IMPHY012567
 96 95 0 0 0
SMALL
GASTEIGER

@<TRIPOS>ATOM
      1 C           5.4641   -0.2500    0.0000 C.3     1  UNL1       -0.0283
      2 C          25.3827    0.2500    0.0000 C.3     1  UNL1       -0.0283
      3 C           4.5981    0.2500    0.0000 C.3     1  UNL1       -0.0308
      4 C          26.2487   -0.2500    0.0000 C.3     1  UNL1       -0.0308
      5 C           6.3301    0.2500    0.0000 C.2     1  UNL1       -0.0723
      6 C          24.5167   -0.2500    0.0000 C.2     1  UNL1       -0.0723
      7 C           3.7320   -0.2500    0.0000 C.2     1  UNL1       -0.0850
      8 C          27.1147    0.2500    0.0000 C.2     1  UNL1       -0.0850
      9 C           2.8660    0.2500    0.0000 C.2     1  UNL1       -0.0796
     10 C          27.9808   -0.2500    0.0000 C.2     1  UNL1       -0.0796
     11 C           6.3301    1.2500    0.0000 C.3     1  UNL1       -0.0435
     12 C          24.5167   -1.2500    0.0000 C.3     1  UNL1       -0.0435
     13 C           7.1962   -0.2500    0.0000 C.2     1  UNL1       -0.0628
     14 C          23.6506    0.2500    0.0000 C.2     1  UNL1       -0.0628
     15 C           2.0000   -0.2500    0.0000 C.3     1  UNL1       -0.0440
     16 C           2.8660    1.2500    0.0000 C.3     1  UNL1       -0.0440
     17 C          28.8468    0.2500    0.0000 C.3     1  UNL1       -0.0440
     18 C          27.9808   -1.2500    0.0000 C.3     1  UNL1       -0.0440
     19 C           8.0622    0.2500    0.0000 C.2     1  UNL1       -0.0616
     20 C          22.7846   -0.2500    0.0000 C.2     1  UNL1       -0.0616
     21 C           8.9282   -0.2500    0.0000 C.2     1  UNL1       -0.0588
     22 C          21.9186    0.2500    0.0000 C.2     1  UNL1       -0.0588
     23 C           9.7942    0.2500    0.0000 C.2     1  UNL1       -0.0504
     24 C          21.0526   -0.2500    0.0000 C.2     1  UNL1       -0.0504
     25 C           9.7942    1.2500    0.0000 C.3     1  UNL1       -0.0397
     26 C          21.0526   -1.2500    0.0000 C.3     1  UNL1       -0.0397
     27 C          10.6603   -0.2500    0.0000 C.2     1  UNL1       -0.0588
     28 C          20.1865    0.2500    0.0000 C.2     1  UNL1       -0.0588
     29 C          11.5263    0.2500    0.0000 C.2     1  UNL1       -0.0613
     30 C          19.3205   -0.2500    0.0000 C.2     1  UNL1       -0.0613
     31 C          12.3923   -0.2500    0.0000 C.2     1  UNL1       -0.0588
     32 C          18.4545    0.2500    0.0000 C.2     1  UNL1       -0.0588
     33 C          13.2583    0.2500    0.0000 C.2     1  UNL1       -0.0504
     34 C          17.5885   -0.2500    0.0000 C.2     1  UNL1       -0.0504
     35 C          14.1244   -0.2500    0.0000 C.2     1  UNL1       -0.0588
     36 C          16.7224    0.2500    0.0000 C.2     1  UNL1       -0.0588
     37 C          13.2583    1.2500    0.0000 C.3     1  UNL1       -0.0397
     38 C          17.5885   -1.2500    0.0000 C.3     1  UNL1       -0.0397
     39 C          14.9904    0.2500    0.0000 C.2     1  UNL1       -0.0615
     40 C          15.8564   -0.2500    0.0000 C.2     1  UNL1       -0.0615
     41 H           5.0656   -0.7249    0.0000 H       1  UNL1        0.0313
     42 H           5.8626   -0.7249    0.0000 H       1  UNL1        0.0313
     43 H          25.7812    0.7249    0.0000 H       1  UNL1        0.0313
     44 H          24.9842    0.7249    0.0000 H       1  UNL1        0.0313
     45 H           4.9966    0.7249    0.0000 H       1  UNL1        0.0310
     46 H           4.1996    0.7249    0.0000 H       1  UNL1        0.0310
     47 H          25.8502   -0.7249    0.0000 H       1  UNL1        0.0310
     48 H          26.6472   -0.7249    0.0000 H       1  UNL1        0.0310
     49 H           3.7320   -0.8700    0.0000 H       1  UNL1        0.0572
     50 H          27.1147    0.8700    0.0000 H       1  UNL1        0.0572
     51 H           6.9501    1.2500    0.0000 H       1  UNL1        0.0274
     52 H           6.3301    1.8700    0.0000 H       1  UNL1        0.0274
     53 H           5.7101    1.2500    0.0000 H       1  UNL1        0.0274
     54 H          23.8967   -1.2500    0.0000 H       1  UNL1        0.0274
     55 H          24.5167   -1.8700    0.0000 H       1  UNL1        0.0274
     56 H          25.1367   -1.2500    0.0000 H       1  UNL1        0.0274
     57 H           7.1962   -0.8700    0.0000 H       1  UNL1        0.0617
     58 H          23.6506    0.8700    0.0000 H       1  UNL1        0.0617
     59 H           1.6900    0.2869    0.0000 H       1  UNL1        0.0274
     60 H           1.4631   -0.5600    0.0000 H       1  UNL1        0.0274
     61 H           2.3100   -0.7869    0.0000 H       1  UNL1        0.0274
     62 H           3.4860    1.2500    0.0000 H       1  UNL1        0.0274
     63 H           2.8660    1.8700    0.0000 H       1  UNL1        0.0274
     64 H           2.2460    1.2500    0.0000 H       1  UNL1        0.0274
     65 H          29.1568   -0.2869    0.0000 H       1  UNL1        0.0274
     66 H          29.3837    0.5600    0.0000 H       1  UNL1        0.0274
     67 H          28.5368    0.7869    0.0000 H       1  UNL1        0.0274
     68 H          27.3608   -1.2500    0.0000 H       1  UNL1        0.0274
     69 H          27.9808   -1.8700    0.0000 H       1  UNL1        0.0274
     70 H          28.6008   -1.2500    0.0000 H       1  UNL1        0.0274
     71 H           8.0622    0.8700    0.0000 H       1  UNL1        0.0618
     72 H          22.7846   -0.8700    0.0000 H       1  UNL1        0.0618
     73 H           8.9282   -0.8700    0.0000 H       1  UNL1        0.0620
     74 H          21.9186    0.8700    0.0000 H       1  UNL1        0.0620
     75 H          10.4142    1.2500    0.0000 H       1  UNL1        0.0278
     76 H           9.7942    1.8700    0.0000 H       1  UNL1        0.0278
     77 H           9.1742    1.2500    0.0000 H       1  UNL1        0.0278
     78 H          20.4326   -1.2500    0.0000 H       1  UNL1        0.0278
     79 H          21.0526   -1.8700    0.0000 H       1  UNL1        0.0278
     80 H          21.6726   -1.2500    0.0000 H       1  UNL1        0.0278
     81 H          10.6603   -0.8700    0.0000 H       1  UNL1        0.0620
     82 H          20.1865    0.8700    0.0000 H       1  UNL1        0.0620
     83 H          11.5263    0.8700    0.0000 H       1  UNL1        0.0618
     84 H          19.3205   -0.8700    0.0000 H       1  UNL1        0.0618
     85 H          12.3923   -0.8700    0.0000 H       1  UNL1        0.0620
     86 H          18.4545    0.8700    0.0000 H       1  UNL1        0.0620
     87 H          14.1244   -0.8700    0.0000 H       1  UNL1        0.0620
     88 H          16.7224    0.8700    0.0000 H       1  UNL1        0.0620
     89 H          13.8783    1.2500    0.0000 H       1  UNL1        0.0278
     90 H          13.2583    1.8700    0.0000 H       1  UNL1        0.0278
     91 H          12.6383    1.2500    0.0000 H       1  UNL1        0.0278
     92 H          16.9685   -1.2500    0.0000 H       1  UNL1        0.0278
     93 H          17.5885   -1.8700    0.0000 H       1  UNL1        0.0278
     94 H          18.2085   -1.2500    0.0000 H       1  UNL1        0.0278
     95 H          14.9904    0.8700    0.0000 H       1  UNL1        0.0618
     96 H          15.8564   -0.8700    0.0000 H       1  UNL1        0.0618
@<TRIPOS>BOND
     1     1     3    1
     2     1     5    1
     3     1    41    1
     4     1    42    1
     5     2     4    1
     6     2     6    1
     7     2    43    1
     8     2    44    1
     9     3     7    1
    10     3    45    1
    11     3    46    1
    12     4     8    1
    13     4    47    1
    14     4    48    1
    15     5    11    1
    16     5    13    2
    17     6    12    1
    18     6    14    2
    19     7     9    2
    20     7    49    1
    21     8    10    2
    22     8    50    1
    23     9    15    1
    24     9    16    1
    25    10    17    1
    26    10    18    1
    27    11    51    1
    28    11    52    1
    29    11    53    1
    30    12    54    1
    31    12    55    1
    32    12    56    1
    33    13    19    1
    34    13    57    1
    35    14    20    1
    36    14    58    1
    37    15    59    1
    38    15    60    1
    39    15    61    1
    40    16    62    1
    41    16    63    1
    42    16    64    1
    43    17    65    1
    44    17    66    1
    45    17    67    1
    46    18    68    1
    47    18    69    1
    48    18    70    1
    49    19    21    2
    50    19    71    1
    51    20    22    2
    52    20    72    1
    53    21    23    1
    54    21    73    1
    55    22    24    1
    56    22    74    1
    57    23    25    1
    58    23    27    2
    59    24    26    1
    60    24    28    2
    61    25    75    1
    62    25    76    1
    63    25    77    1
    64    26    78    1
    65    26    79    1
    66    26    80    1
    67    27    29    1
    68    27    81    1
    69    28    30    1
    70    28    82    1
    71    29    31    2
    72    29    83    1
    73    30    32    2
    74    30    84    1
    75    31    33    1
    76    31    85    1
    77    32    34    1
    78    32    86    1
    79    33    35    2
    80    33    37    1
    81    34    36    2
    82    34    38    1
    83    35    39    1
    84    35    87    1
    85    36    40    1
    86    36    88    1
    87    37    89    1
    88    37    90    1
    89    37    91    1
    90    38    92    1
    91    38    93    1
    92    38    94    1
    93    39    40    2
    94    39    95    1
    95    40    96    1
