@<TRIPOS>MOLECULE
IMPHY008331
 46 49 0 0 0
SMALL
GASTEIGER

@<TRIPOS>ATOM
      1 O           7.3180    1.4799    0.0000 O.3     1  UNL1       -0.3902
      2 O           2.9176    0.9694    0.0000 O.2     1  UNL1       -0.2756
      3 N           5.5321   -0.5652    0.0000 N.3     1  UNL1       -0.2757
      4 N           3.8000   -0.5652    0.0000 N.am    1  UNL1       -0.2826
      5 C           5.5321   -1.5652    0.0000 C.3     1  UNL1        0.0144
      6 C           6.4421   -0.0584    0.0000 C.3     1  UNL1        0.0385
      7 C           4.6660   -0.0652    0.0000 C.3     1  UNL1        0.0803
      8 C           3.8000   -1.5652    0.0000 C.3     1  UNL1        0.0289
      9 C           4.6660   -2.0652    0.0000 C.3     1  UNL1       -0.0185
     10 C           6.3903   -2.0622    0.0000 C.3     1  UNL1       -0.0346
     11 C           7.2814   -0.5866    0.0000 C.3     1  UNL1       -0.0322
     12 C           7.2558   -1.5780    0.0000 C.3     1  UNL1       -0.0410
     13 C           6.4501    0.9832    0.0000 C.3     1  UNL1        0.0709
     14 C           4.6500    0.9763    0.0000 C.3     1  UNL1       -0.0182
     15 C           5.5480    1.5040    0.0000 C.3     1  UNL1       -0.0225
     16 C           2.9061   -2.0999    0.0000 C.3     1  UNL1       -0.0338
     17 C           2.9061   -0.0306    0.0000 C.2     1  UNL1        0.2170
     18 C           2.0000   -1.5860    0.0000 C.3     1  UNL1       -0.0431
     19 C           8.1118   -2.0949    0.0000 C.3     1  UNL1       -0.0623
     20 C           2.0000   -0.5444    0.0000 C.3     1  UNL1        0.0243
     21 H           5.5315   -2.4152    0.0000 H       1  UNL1        0.0464
     22 H           7.1877    0.3496    0.0000 H       1  UNL1        0.0489
     23 H           5.3989    0.3654    0.0000 H       1  UNL1        0.0672
     24 H           3.8066   -2.4152    0.0000 H       1  UNL1        0.0501
     25 H           4.2675   -2.5402    0.0000 H       1  UNL1        0.0298
     26 H           5.0646   -2.5402    0.0000 H       1  UNL1        0.0298
     27 H           5.9892   -2.5350    0.0000 H       1  UNL1        0.0283
     28 H           6.7843   -2.5408    0.0000 H       1  UNL1        0.0283
     29 H           7.8885   -0.7125    0.0000 H       1  UNL1        0.0284
     30 H           7.5131   -0.0115    0.0000 H       1  UNL1        0.0284
     31 H           7.2454   -2.1979    0.0000 H       1  UNL1        0.0299
     32 H           6.9852    0.6701    0.0000 H       1  UNL1        0.0609
     33 H           4.4319    1.5567    0.0000 H       1  UNL1        0.0297
     34 H           4.0408    0.8608    0.0000 H       1  UNL1        0.0297
     35 H           5.9453    1.9800    0.0000 H       1  UNL1        0.0292
     36 H           5.1470    1.9769    0.0000 H       1  UNL1        0.0292
     37 H           2.5124   -2.5789    0.0000 H       1  UNL1        0.0283
     38 H           3.3107   -2.5697    0.0000 H       1  UNL1        0.0283
     39 H           1.3891   -1.4799    0.0000 H       1  UNL1        0.0270
     40 H           1.7909   -2.1697    0.0000 H       1  UNL1        0.0270
     41 H           7.7913   -2.6257    0.0000 H       1  UNL1        0.0232
     42 H           8.6425   -2.4154    0.0000 H       1  UNL1        0.0232
     43 H           8.4323   -1.5642    0.0000 H       1  UNL1        0.0232
     44 H           1.7909    0.0393    0.0000 H       1  UNL1        0.0358
     45 H           1.3891   -0.6505    0.0000 H       1  UNL1        0.0358
     46 H           7.3204    2.0999    0.0000 H       1  UNL1        0.2098
@<TRIPOS>BOND
     1    13     1    1
     2     1    46    1
     3     2    17    2
     4     3     5    1
     5     3     6    1
     6     3     7    1
     7     4     7    1
     8     4     8    1
     9     4    17   am
    10     5     9    1
    11     5    10    1
    12     5    21    1
    13     6    11    1
    14     6    13    1
    15     6    22    1
    16     7    14    1
    17     7    23    1
    18     8     9    1
    19     8    16    1
    20     8    24    1
    21     9    25    1
    22     9    26    1
    23    10    12    1
    24    10    27    1
    25    10    28    1
    26    11    12    1
    27    11    29    1
    28    11    30    1
    29    12    19    1
    30    12    31    1
    31    13    15    1
    32    13    32    1
    33    14    15    1
    34    14    33    1
    35    14    34    1
    36    15    35    1
    37    15    36    1
    38    16    18    1
    39    16    37    1
    40    16    38    1
    41    17    20    1
    42    18    20    1
    43    18    39    1
    44    18    40    1
    45    19    41    1
    46    19    42    1
    47    19    43    1
    48    20    44    1
    49    20    45    1
