@<TRIPOS>MOLECULE
IMPHY000192
 116 116 0 0 0
SMALL
GASTEIGER

@<TRIPOS>ATOM
      1 O           5.4641   -9.0950    0.0000 O.2     1  UNL1       -0.2758
      2 O           2.8660  -14.5950    0.0000 O.3     1  UNL1       -0.5068
      3 N           3.7320   -9.0950    0.0000 N.am    1  UNL1       -0.3150
      4 C          10.6603    2.9050    0.0000 C.3     1  UNL1       -0.0531
      5 C          11.5263    3.4050    0.0000 C.3     1  UNL1       -0.0531
      6 C          10.6603    1.9050    0.0000 C.3     1  UNL1       -0.0531
      7 C          11.5263    4.4050    0.0000 C.3     1  UNL1       -0.0531
      8 C           9.7942    1.4050    0.0000 C.3     1  UNL1       -0.0531
      9 C          12.3923    4.9050    0.0000 C.3     1  UNL1       -0.0531
     10 C           9.7942    0.4050    0.0000 C.3     1  UNL1       -0.0531
     11 C          12.3923    5.9050    0.0000 C.3     1  UNL1       -0.0531
     12 C           8.9282   -0.0950    0.0000 C.3     1  UNL1       -0.0531
     13 C          13.2583    6.4050    0.0000 C.3     1  UNL1       -0.0531
     14 C           8.9282   -1.0950    0.0000 C.3     1  UNL1       -0.0531
     15 C          13.2583    7.4050    0.0000 C.3     1  UNL1       -0.0531
     16 C           8.0622   -1.5950    0.0000 C.3     1  UNL1       -0.0531
     17 C          14.1244    7.9050    0.0000 C.3     1  UNL1       -0.0531
     18 C           8.0622   -2.5950    0.0000 C.3     1  UNL1       -0.0531
     19 C          14.1244    8.9050    0.0000 C.3     1  UNL1       -0.0531
     20 C           7.1962   -3.0950    0.0000 C.3     1  UNL1       -0.0531
     21 C          14.9904    9.4050    0.0000 C.3     1  UNL1       -0.0531
     22 C           7.1962   -4.0950    0.0000 C.3     1  UNL1       -0.0531
     23 C          14.9904   10.4050    0.0000 C.3     1  UNL1       -0.0531
     24 C           6.3301   -4.5950    0.0000 C.3     1  UNL1       -0.0531
     25 C          15.8564   10.9050    0.0000 C.3     1  UNL1       -0.0531
     26 C           6.3301   -5.5950    0.0000 C.3     1  UNL1       -0.0530
     27 C          15.8564   11.9050    0.0000 C.3     1  UNL1       -0.0531
     28 C           5.4641   -6.0950    0.0000 C.3     1  UNL1       -0.0526
     29 C          16.7224   12.4050    0.0000 C.3     1  UNL1       -0.0531
     30 C           5.4641   -7.0950    0.0000 C.3     1  UNL1       -0.0448
     31 C          16.7224   13.4050    0.0000 C.3     1  UNL1       -0.0533
     32 C          17.5885   13.9050    0.0000 C.3     1  UNL1       -0.0559
     33 C           4.5981   -7.5950    0.0000 C.3     1  UNL1        0.0240
     34 C          17.5885   14.9050    0.0000 C.3     1  UNL1       -0.0653
     35 C           4.5981   -8.5950    0.0000 C.2     1  UNL1        0.2130
     36 C           3.7320  -10.0950    0.0000 C.3     1  UNL1        0.0156
     37 C           2.8660  -10.5950    0.0000 C.3     1  UNL1       -0.0121
     38 C           2.8660  -11.5950    0.0000 C.ar    1  UNL1       -0.0457
     39 C           2.0000  -12.0950    0.0000 C.ar    1  UNL1       -0.0551
     40 C           3.7320  -12.0950    0.0000 C.ar    1  UNL1       -0.0551
     41 C           2.0000  -13.0950    0.0000 C.ar    1  UNL1       -0.0199
     42 C           3.7320  -13.0950    0.0000 C.ar    1  UNL1       -0.0199
     43 C           2.8660  -13.5950    0.0000 C.ar    1  UNL1        0.1169
     44 H          10.4482    3.4876    0.0000 H       1  UNL1        0.0265
     45 H          10.0497    2.7973    0.0000 H       1  UNL1        0.0265
     46 H          11.7383    2.8224    0.0000 H       1  UNL1        0.0265
     47 H          12.1369    3.5127    0.0000 H       1  UNL1        0.0265
     48 H          10.8723    1.3224    0.0000 H       1  UNL1        0.0265
     49 H          11.2708    2.0127    0.0000 H       1  UNL1        0.0265
     50 H          11.3142    4.9876    0.0000 H       1  UNL1        0.0265
     51 H          10.9157    4.2973    0.0000 H       1  UNL1        0.0265
     52 H           9.5822    1.9876    0.0000 H       1  UNL1        0.0265
     53 H           9.1836    1.2973    0.0000 H       1  UNL1        0.0265
     54 H          12.6044    4.3224    0.0000 H       1  UNL1        0.0265
     55 H          13.0029    5.0127    0.0000 H       1  UNL1        0.0265
     56 H          10.0063   -0.1776    0.0000 H       1  UNL1        0.0265
     57 H          10.4048    0.5127    0.0000 H       1  UNL1        0.0265
     58 H          12.1803    6.4876    0.0000 H       1  UNL1        0.0265
     59 H          11.7817    5.7973    0.0000 H       1  UNL1        0.0265
     60 H           8.7162    0.4876    0.0000 H       1  UNL1        0.0265
     61 H           8.3176   -0.2027    0.0000 H       1  UNL1        0.0265
     62 H          13.4704    5.8224    0.0000 H       1  UNL1        0.0265
     63 H          13.8689    6.5127    0.0000 H       1  UNL1        0.0265
     64 H           9.1403   -1.6776    0.0000 H       1  UNL1        0.0265
     65 H           9.5388   -0.9873    0.0000 H       1  UNL1        0.0265
     66 H          13.0463    7.9876    0.0000 H       1  UNL1        0.0265
     67 H          12.6477    7.2973    0.0000 H       1  UNL1        0.0265
     68 H           7.8501   -1.0124    0.0000 H       1  UNL1        0.0265
     69 H           7.4516   -1.7027    0.0000 H       1  UNL1        0.0265
     70 H          14.3364    7.3224    0.0000 H       1  UNL1        0.0265
     71 H          14.7349    8.0127    0.0000 H       1  UNL1        0.0265
     72 H           8.2742   -3.1776    0.0000 H       1  UNL1        0.0265
     73 H           8.6728   -2.4873    0.0000 H       1  UNL1        0.0265
     74 H          13.9123    9.4876    0.0000 H       1  UNL1        0.0265
     75 H          13.5138    8.7973    0.0000 H       1  UNL1        0.0265
     76 H           6.9841   -2.5124    0.0000 H       1  UNL1        0.0265
     77 H           6.5856   -3.2027    0.0000 H       1  UNL1        0.0265
     78 H          15.2024    8.8224    0.0000 H       1  UNL1        0.0265
     79 H          15.6010    9.5127    0.0000 H       1  UNL1        0.0265
     80 H           7.4082   -4.6776    0.0000 H       1  UNL1        0.0265
     81 H           7.8067   -3.9873    0.0000 H       1  UNL1        0.0265
     82 H          14.7783   10.9876    0.0000 H       1  UNL1        0.0265
     83 H          14.3798   10.2973    0.0000 H       1  UNL1        0.0265
     84 H           6.1181   -4.0124    0.0000 H       1  UNL1        0.0265
     85 H           5.7196   -4.7027    0.0000 H       1  UNL1        0.0265
     86 H          16.0685   10.3224    0.0000 H       1  UNL1        0.0265
     87 H          16.4670   11.0127    0.0000 H       1  UNL1        0.0265
     88 H           6.5422   -6.1776    0.0000 H       1  UNL1        0.0265
     89 H           6.9407   -5.4873    0.0000 H       1  UNL1        0.0265
     90 H          15.6444   12.4876    0.0000 H       1  UNL1        0.0265
     91 H          15.2458   11.7973    0.0000 H       1  UNL1        0.0265
     92 H           5.2520   -5.5124    0.0000 H       1  UNL1        0.0265
     93 H           4.8535   -6.2027    0.0000 H       1  UNL1        0.0265
     94 H          16.9345   11.8224    0.0000 H       1  UNL1        0.0265
     95 H          17.3330   12.5127    0.0000 H       1  UNL1        0.0265
     96 H           5.6762   -7.6776    0.0000 H       1  UNL1        0.0270
     97 H           6.0747   -6.9873    0.0000 H       1  UNL1        0.0270
     98 H          16.5104   13.9876    0.0000 H       1  UNL1        0.0265
     99 H          16.1119   13.2973    0.0000 H       1  UNL1        0.0265
    100 H          17.8005   13.3224    0.0000 H       1  UNL1        0.0263
    101 H          18.1990   14.0127    0.0000 H       1  UNL1        0.0263
    102 H           4.3860   -7.0124    0.0000 H       1  UNL1        0.0358
    103 H           3.9875   -7.7027    0.0000 H       1  UNL1        0.0358
    104 H          18.2085   14.9050    0.0000 H       1  UNL1        0.0230
    105 H          17.5885   15.5250    0.0000 H       1  UNL1        0.0230
    106 H          16.9685   14.9050    0.0000 H       1  UNL1        0.0230
    107 H           3.1951   -8.7850    0.0000 H       1  UNL1        0.1487
    108 H           3.9441  -10.6776    0.0000 H       1  UNL1        0.0465
    109 H           4.3426   -9.9873    0.0000 H       1  UNL1        0.0465
    110 H           2.6540  -10.0124    0.0000 H       1  UNL1        0.0328
    111 H           2.2554  -10.7027    0.0000 H       1  UNL1        0.0328
    112 H           1.4631  -11.7850    0.0000 H       1  UNL1        0.0621
    113 H           4.2690  -11.7850    0.0000 H       1  UNL1        0.0621
    114 H           1.4631  -13.4050    0.0000 H       1  UNL1        0.0654
    115 H           4.2690  -13.4050    0.0000 H       1  UNL1        0.0654
    116 H           2.3291  -14.9050    0.0000 H       1  UNL1        0.2921
@<TRIPOS>BOND
     1     1    35    2
     2     2    43    1
     3     2   116    1
     4     3    35   am
     5     3    36    1
     6     3   107    1
     7     4     5    1
     8     4     6    1
     9     4    44    1
    10     4    45    1
    11     5     7    1
    12     5    46    1
    13     5    47    1
    14     6     8    1
    15     6    48    1
    16     6    49    1
    17     7     9    1
    18     7    50    1
    19     7    51    1
    20     8    10    1
    21     8    52    1
    22     8    53    1
    23     9    11    1
    24     9    54    1
    25     9    55    1
    26    10    12    1
    27    10    56    1
    28    10    57    1
    29    11    13    1
    30    11    58    1
    31    11    59    1
    32    12    14    1
    33    12    60    1
    34    12    61    1
    35    13    15    1
    36    13    62    1
    37    13    63    1
    38    14    16    1
    39    14    64    1
    40    14    65    1
    41    15    17    1
    42    15    66    1
    43    15    67    1
    44    16    18    1
    45    16    68    1
    46    16    69    1
    47    17    19    1
    48    17    70    1
    49    17    71    1
    50    18    20    1
    51    18    72    1
    52    18    73    1
    53    19    21    1
    54    19    74    1
    55    19    75    1
    56    20    22    1
    57    20    76    1
    58    20    77    1
    59    21    23    1
    60    21    78    1
    61    21    79    1
    62    22    24    1
    63    22    80    1
    64    22    81    1
    65    23    25    1
    66    23    82    1
    67    23    83    1
    68    24    26    1
    69    24    84    1
    70    24    85    1
    71    25    27    1
    72    25    86    1
    73    25    87    1
    74    26    28    1
    75    26    88    1
    76    26    89    1
    77    27    29    1
    78    27    90    1
    79    27    91    1
    80    28    30    1
    81    28    92    1
    82    28    93    1
    83    29    31    1
    84    29    94    1
    85    29    95    1
    86    30    33    1
    87    30    96    1
    88    30    97    1
    89    31    32    1
    90    31    98    1
    91    31    99    1
    92    32    34    1
    93    32   100    1
    94    32   101    1
    95    33    35    1
    96    33   102    1
    97    33   103    1
    98    34   104    1
    99    34   105    1
   100    34   106    1
   101    36    37    1
   102    36   108    1
   103    36   109    1
   104    37    38    1
   105    37   110    1
   106    37   111    1
   107    38    39   ar
   108    38    40   ar
   109    39    41   ar
   110    39   112    1
   111    40    42   ar
   112    40   113    1
   113    41    43   ar
   114    41   114    1
   115    42    43   ar
   116    42   115    1
