@<TRIPOS>MOLECULE
IMPHY017596
 38 39 0 0 0
SMALL
GASTEIGER

@<TRIPOS>ATOM
      1 O           7.2566    2.1815    0.0000 O.2     1  UNL1       -0.2961
      2 C           3.7320   -1.4367    0.0000 C.3     1  UNL1       -0.0250
      3 C           3.7320   -0.4367    0.0000 C.3     1  UNL1       -0.0085
      4 C           4.6783   -0.1320    0.0000 C.3     1  UNL1       -0.0153
      5 C           4.6783   -1.7415    0.0000 C.3     1  UNL1       -0.0465
      6 C           5.2619   -0.9367    0.0000 C.3     1  UNL1       -0.0457
      7 C           2.8660   -1.9367    0.0000 C.3     1  UNL1       -0.0468
      8 C           2.8660    0.0633    0.0000 C.2     1  UNL1       -0.0725
      9 C           2.0000   -1.4367    0.0000 C.3     1  UNL1       -0.0489
     10 C           3.7320   -2.4367    0.0000 C.3     1  UNL1       -0.0590
     11 C           2.0000   -0.4367    0.0000 C.3     1  UNL1       -0.0317
     12 C           4.9889    0.8185    0.0000 C.2     1  UNL1       -0.0744
     13 C           2.8660    1.0633    0.0000 C.2     1  UNL1       -0.0991
     14 C           5.9674    1.0247    0.0000 C.2     1  UNL1       -0.0149
     15 C           6.6353    0.2804    0.0000 C.3     1  UNL1       -0.0370
     16 C           6.2781    1.9753    0.0000 C.2     1  UNL1        0.1457
     17 H           3.7977    0.1798    0.0000 H       1  UNL1        0.0356
     18 H           5.2908   -0.0358    0.0000 H       1  UNL1        0.0349
     19 H           4.4272   -2.3084    0.0000 H       1  UNL1        0.0271
     20 H           5.2156   -2.0507    0.0000 H       1  UNL1        0.0271
     21 H           5.7227   -1.3515    0.0000 H       1  UNL1        0.0271
     22 H           5.7227   -0.5220    0.0000 H       1  UNL1        0.0271
     23 H           2.4675   -2.4117    0.0000 H       1  UNL1        0.0271
     24 H           3.2646   -2.4117    0.0000 H       1  UNL1        0.0271
     25 H           1.3894   -1.3291    0.0000 H       1  UNL1        0.0268
     26 H           1.7880   -2.0193    0.0000 H       1  UNL1        0.0268
     27 H           3.1120   -2.4367    0.0000 H       1  UNL1        0.0235
     28 H           3.7320   -3.0567    0.0000 H       1  UNL1        0.0235
     29 H           4.3520   -2.4367    0.0000 H       1  UNL1        0.0235
     30 H           1.7880    0.1459    0.0000 H       1  UNL1        0.0310
     31 H           1.3894   -0.5444    0.0000 H       1  UNL1        0.0310
     32 H           4.5749    1.2800    0.0000 H       1  UNL1        0.0579
     33 H           3.4030    1.3733    0.0000 H       1  UNL1        0.0534
     34 H           2.3291    1.3733    0.0000 H       1  UNL1        0.0534
     35 H           6.1738   -0.1336    0.0000 H       1  UNL1        0.0278
     36 H           7.0494   -0.1810    0.0000 H       1  UNL1        0.0278
     37 H           7.0968    0.6945    0.0000 H       1  UNL1        0.0278
     38 H           5.8640    2.4367    0.0000 H       1  UNL1        0.1078
@<TRIPOS>BOND
     1     1    16    2
     2     2     3    1
     3     2     5    1
     4     2     7    1
     5     2    10    1
     6     3     4    1
     7     3     8    1
     8     3    17    1
     9     4     6    1
    10     4    12    1
    11     4    18    1
    12     5     6    1
    13     5    19    1
    14     5    20    1
    15     6    21    1
    16     6    22    1
    17     7     9    1
    18     7    23    1
    19     7    24    1
    20     8    11    1
    21     8    13    2
    22     9    11    1
    23     9    25    1
    24     9    26    1
    25    10    27    1
    26    10    28    1
    27    10    29    1
    28    11    30    1
    29    11    31    1
    30    12    14    2
    31    12    32    1
    32    13    33    1
    33    13    34    1
    34    14    15    1
    35    14    16    1
    36    15    35    1
    37    15    36    1
    38    15    37    1
    39    16    38    1
