@<TRIPOS>MOLECULE
IMPHY014532
 81 85 0 0 0
SMALL
GASTEIGER

@<TRIPOS>ATOM
      1 O           2.3079   -2.5479    0.0000 O.3     1  UNL1       -0.3945
      2 C           7.3901    1.4221    0.0000 C.3     1  UNL1       -0.0194
      3 C           7.3901    0.4221    0.0000 C.3     1  UNL1       -0.0196
      4 C           8.2840    1.9568    0.0000 C.3     1  UNL1       -0.0292
      5 C           9.1901    1.4429    0.0000 C.3     1  UNL1       -0.0256
      6 C           6.5241   -0.0779    0.0000 C.3     1  UNL1       -0.0135
      7 C           8.2840   -0.1125    0.0000 C.3     1  UNL1       -0.0461
      8 C           9.9524    2.1437    0.0000 C.3     1  UNL1       -0.0330
      9 C           9.1901    0.4013    0.0000 C.3     1  UNL1       -0.0466
     10 C           8.4941    2.9707    0.0000 C.3     1  UNL1       -0.0489
     11 C           6.5241    1.9221    0.0000 C.3     1  UNL1       -0.0283
     12 C           5.6580    0.4221    0.0000 C.2     1  UNL1       -0.0636
     13 C           4.7480   -0.0847    0.0000 C.3     1  UNL1       -0.0074
     14 C           9.5232    3.0860    0.0000 C.3     1  UNL1       -0.0492
     15 C           4.7400   -1.1263    0.0000 C.3     1  UNL1       -0.0244
     16 C           6.5401   -1.1194    0.0000 C.3     1  UNL1       -0.0457
     17 C           7.3901    2.4221    0.0000 C.3     1  UNL1       -0.0585
     18 C           7.3901   -0.5779    0.0000 C.3     1  UNL1       -0.0585
     19 C           5.6580    1.4221    0.0000 C.2     1  UNL1       -0.0834
     20 C           5.6421   -1.6471    0.0000 C.3     1  UNL1       -0.0483
     21 C          10.0599    0.9496    0.0000 C.3     1  UNL1       -0.0590
     22 C           3.8046   -1.6760    0.0000 C.3     1  UNL1       -0.0053
     23 C          10.9325    1.9450    0.0000 C.3     1  UNL1       -0.0434
     24 C           3.8212    0.4794    0.0000 C.3     1  UNL1       -0.0436
     25 C           4.7557    0.9152    0.0000 C.3     1  UNL1       -0.0556
     26 C           2.8650   -1.1336    0.0000 C.3     1  UNL1       -0.0452
     27 C           2.8733   -0.0486    0.0000 C.3     1  UNL1       -0.0517
     28 C           3.3079   -2.5440    0.0000 C.3     1  UNL1        0.0499
     29 C           4.3079   -2.5402    0.0000 C.3     1  UNL1       -0.0572
     30 C          11.5946    2.6944    0.0000 C.3     1  UNL1       -0.0624
     31 C          11.2505    0.9969    0.0000 C.3     1  UNL1       -0.0624
     32 H           9.0583    2.3075    0.0000 H       1  UNL1        0.0312
     33 H           7.2634   -0.4972    0.0000 H       1  UNL1        0.0351
     34 H           7.8794   -0.5823    0.0000 H       1  UNL1        0.0271
     35 H           8.6776   -0.5916    0.0000 H       1  UNL1        0.0271
     36 H          10.3382    2.6290    0.0000 H       1  UNL1        0.0309
     37 H           9.3992   -0.1824    0.0000 H       1  UNL1        0.0271
     38 H           9.8010    0.5074    0.0000 H       1  UNL1        0.0271
     39 H           8.4902    3.5907    0.0000 H       1  UNL1        0.0268
     40 H           7.8772    3.0320    0.0000 H       1  UNL1        0.0268
     41 H           6.9226    2.3971    0.0000 H       1  UNL1        0.0313
     42 H           6.1255    2.3971    0.0000 H       1  UNL1        0.0313
     43 H          10.1113    3.2823    0.0000 H       1  UNL1        0.0268
     44 H           9.3898    3.6915    0.0000 H       1  UNL1        0.0268
     45 H           4.7433   -1.9763    0.0000 H       1  UNL1        0.0315
     46 H           6.7582   -1.6998    0.0000 H       1  UNL1        0.0271
     47 H           7.1493   -1.0039    0.0000 H       1  UNL1        0.0271
     48 H           8.0101    2.4221    0.0000 H       1  UNL1        0.0235
     49 H           7.3901    3.0421    0.0000 H       1  UNL1        0.0235
     50 H           6.7701    2.4221    0.0000 H       1  UNL1        0.0235
     51 H           6.7701   -0.5779    0.0000 H       1  UNL1        0.0235
     52 H           7.3901   -1.1979    0.0000 H       1  UNL1        0.0235
     53 H           8.0101   -0.5779    0.0000 H       1  UNL1        0.0235
     54 H           5.1211    1.7321    0.0000 H       1  UNL1        0.0572
     55 H           5.2448   -2.1231    0.0000 H       1  UNL1        0.0269
     56 H           6.0430   -2.1200    0.0000 H       1  UNL1        0.0269
     57 H           9.7541    0.4103    0.0000 H       1  UNL1        0.0235
     58 H          10.5993    0.6438    0.0000 H       1  UNL1        0.0235
     59 H          10.3658    1.4889    0.0000 H       1  UNL1        0.0235
     60 H          10.5220    1.4804    0.0000 H       1  UNL1        0.0298
     61 H           4.2294    0.9460    0.0000 H       1  UNL1        0.0274
     62 H           3.4313    0.9614    0.0000 H       1  UNL1        0.0274
     63 H           2.2549   -1.0228    0.0000 H       1  UNL1        0.0271
     64 H           2.6514   -1.7156    0.0000 H       1  UNL1        0.0271
     65 H           5.3757    0.9105    0.0000 H       1  UNL1        0.0238
     66 H           4.7605    1.5352    0.0000 H       1  UNL1        0.0238
     67 H           4.1358    0.9200    0.0000 H       1  UNL1        0.0238
     68 H           2.6688    0.5367    0.0000 H       1  UNL1        0.0266
     69 H           2.2616   -0.1500    0.0000 H       1  UNL1        0.0266
     70 H           3.2026   -3.1550    0.0000 H       1  UNL1        0.0562
     71 H           3.8913   -2.7538    0.0000 H       1  UNL1        0.0562
     72 H           3.7722   -2.8522    0.0000 H       1  UNL1        0.0236
     73 H           4.6200   -3.0759    0.0000 H       1  UNL1        0.0236
     74 H           4.8436   -2.2281    0.0000 H       1  UNL1        0.0236
     75 H          12.0592    2.2840    0.0000 H       1  UNL1        0.0232
     76 H          12.0051    3.1591    0.0000 H       1  UNL1        0.0232
     77 H          11.1299    3.1049    0.0000 H       1  UNL1        0.0232
     78 H          10.6626    0.7998    0.0000 H       1  UNL1        0.0232
     79 H          11.4476    0.4091    0.0000 H       1  UNL1        0.0232
     80 H          11.8383    1.1941    0.0000 H       1  UNL1        0.0232
     81 H           2.0000   -3.0860    0.0000 H       1  UNL1        0.2094
@<TRIPOS>BOND
     1     1    28    1
     2     1    81    1
     3     2     3    1
     4     2     4    1
     5     2    11    1
     6     2    17    1
     7     3     6    1
     8     3     7    1
     9     3    18    1
    10     4     5    1
    11     4    10    1
    12     4    32    1
    13     5     8    1
    14     5     9    1
    15     5    21    1
    16     6    12    1
    17     6    16    1
    18     6    33    1
    19     7     9    1
    20     7    34    1
    21     7    35    1
    22     8    14    1
    23     8    23    1
    24     8    36    1
    25     9    37    1
    26     9    38    1
    27    10    14    1
    28    10    39    1
    29    10    40    1
    30    11    19    1
    31    11    41    1
    32    11    42    1
    33    12    13    1
    34    12    19    2
    35    13    15    1
    36    13    24    1
    37    13    25    1
    38    14    43    1
    39    14    44    1
    40    15    20    1
    41    15    22    1
    42    15    45    1
    43    16    20    1
    44    16    46    1
    45    16    47    1
    46    17    48    1
    47    17    49    1
    48    17    50    1
    49    18    51    1
    50    18    52    1
    51    18    53    1
    52    19    54    1
    53    20    55    1
    54    20    56    1
    55    21    57    1
    56    21    58    1
    57    21    59    1
    58    22    26    1
    59    22    28    1
    60    22    29    1
    61    23    30    1
    62    23    31    1
    63    23    60    1
    64    24    27    1
    65    24    61    1
    66    24    62    1
    67    25    65    1
    68    25    66    1
    69    25    67    1
    70    26    27    1
    71    26    63    1
    72    26    64    1
    73    27    68    1
    74    27    69    1
    75    28    70    1
    76    28    71    1
    77    29    72    1
    78    29    73    1
    79    29    74    1
    80    30    75    1
    81    30    76    1
    82    30    77    1
    83    31    78    1
    84    31    79    1
    85    31    80    1
