@<TRIPOS>MOLECULE
IMPHY013290
 16 15 0 0 0
SMALL
GASTEIGER

@<TRIPOS>ATOM
      1 O           5.1350    1.3100    0.0000 O.3     1  UNL1       -0.4589
      2 O           2.5369    0.8100    0.0000 O.3     1  UNL1       -0.3913
      3 O           3.4030   -0.6900    0.0000 O.3     1  UNL1       -0.3913
      4 O           6.8671    1.3100    0.0000 O.2     1  UNL1       -0.2546
      5 C           4.2690    0.8100    0.0000 C.3     1  UNL1        0.1485
      6 C           3.4030    1.3100    0.0000 C.3     1  UNL1        0.0834
      7 C           4.2690   -0.1900    0.0000 C.3     1  UNL1        0.0834
      8 C           6.0010    0.8100    0.0000 C.2     1  UNL1        0.2947
      9 H           4.2690    1.4300    0.0000 H       1  UNL1        0.0780
     10 H           3.8015    1.7850    0.0000 H       1  UNL1        0.0595
     11 H           3.0044    1.7850    0.0000 H       1  UNL1        0.0595
     12 H           4.4810   -0.7726    0.0000 H       1  UNL1        0.0595
     13 H           4.8796   -0.0823    0.0000 H       1  UNL1        0.0595
     14 H           2.0000    1.1200    0.0000 H       1  UNL1        0.2096
     15 H           3.4030   -1.3100    0.0000 H       1  UNL1        0.2096
     16 H           6.0010    0.1900    0.0000 H       1  UNL1        0.1512
@<TRIPOS>BOND
     1     1     5    1
     2     1     8    1
     3     2     6    1
     4     2    14    1
     5     3     7    1
     6     3    15    1
     7     4     8    2
     8     5     6    1
     9     5     7    1
    10     5     9    1
    11     6    10    1
    12     6    11    1
    13     7    12    1
    14     7    13    1
    15     8    16    1
