@<TRIPOS>MOLECULE
IMPHY010523
 153 162 0 0 0
SMALL
GASTEIGER

@<TRIPOS>ATOM
      1 O           8.0420    5.8859    0.0000 O.3     1  UNL1       -0.3448
      2 O           9.8145    6.7806    0.0000 O.3     1  UNL1       -0.3480
      3 O           9.4651   -2.3582    0.0000 O.3     1  UNL1       -0.3451
      4 O           7.7331   -2.3582    0.0000 O.3     1  UNL1       -0.3431
      5 O           9.4651   -4.3582    0.0000 O.3     1  UNL1       -0.3377
      6 O           7.7331   -5.3582    0.0000 O.3     1  UNL1       -0.3400
      7 O           6.0010   -4.3582    0.0000 O.3     1  UNL1       -0.3402
      8 O          11.0927   -4.9506    0.0000 O.3     1  UNL1       -0.3405
      9 O           9.2331   -6.2242    0.0000 O.3     1  UNL1       -0.3431
     10 O           5.1350   -2.8582    0.0000 O.3     1  UNL1       -0.3431
     11 O          10.1492   -2.4788    0.0000 O.3     1  UNL1       -0.3841
     12 O           6.7332   -7.0903    0.0000 O.3     1  UNL1       -0.3841
     13 O          12.1188   -2.1316    0.0000 O.3     1  UNL1       -0.3864
     14 O           4.2690   -5.3582    0.0000 O.3     1  UNL1       -0.3841
     15 O          13.4044   -3.6636    0.0000 O.3     1  UNL1       -0.3865
     16 O           7.7331   -8.8223    0.0000 O.3     1  UNL1       -0.3864
     17 O           2.5369   -4.3582    0.0000 O.3     1  UNL1       -0.3864
     18 O           9.7331   -8.8223    0.0000 O.3     1  UNL1       -0.3866
     19 O           2.5369   -2.3582    0.0000 O.3     1  UNL1       -0.3866
     20 O          12.3783   -6.4827    0.0000 O.3     1  UNL1       -0.3924
     21 C           9.4359    3.8386    0.0000 C.3     1  UNL1       -0.0233
     22 C           8.5679    3.3420    0.0000 C.3     1  UNL1       -0.0295
     23 C           9.2304    4.8113    0.0000 C.3     1  UNL1       -0.0015
     24 C           8.5641    2.3420    0.0000 C.3     1  UNL1       -0.0306
     25 C           8.2421    4.9181    0.0000 C.3     1  UNL1        0.0660
     26 C           9.4282    1.8387    0.0000 C.3     1  UNL1       -0.0285
     27 C           7.8335    4.0119    0.0000 C.3     1  UNL1       -0.0226
     28 C          10.3000    3.3353    0.0000 C.3     1  UNL1       -0.0467
     29 C           9.6327    5.7139    0.0000 C.3     1  UNL1        0.0160
     30 C          10.2961    2.3353    0.0000 C.3     1  UNL1       -0.0486
     31 C           9.4402    0.7971    0.0000 C.3     1  UNL1       -0.0078
     32 C           8.8997    6.3766    0.0000 C.3     1  UNL1        0.1732
     33 C          10.3038    4.3353    0.0000 C.3     1  UNL1       -0.0590
     34 C           7.6521    1.8387    0.0000 C.3     1  UNL1       -0.0311
     35 C           8.5402    0.2728    0.0000 C.2     1  UNL1       -0.0648
     36 C          10.3901    0.2728    0.0000 C.3     1  UNL1       -0.0413
     37 C          10.6111    5.9205    0.0000 C.3     1  UNL1       -0.0572
     38 C           8.0925    6.9668    0.0000 C.3     1  UNL1        0.0020
     39 C           7.6401    0.7971    0.0000 C.2     1  UNL1       -0.0839
     40 C          10.3043    1.3004    0.0000 C.3     1  UNL1       -0.0556
     41 C           8.5276   -0.8121    0.0000 C.3     1  UNL1       -0.0047
     42 C          10.4027   -0.8121    0.0000 C.3     1  UNL1       -0.0254
     43 C           9.4651   -1.3582    0.0000 C.3     1  UNL1        0.0655
     44 C           8.2000    7.9611    0.0000 C.3     1  UNL1       -0.0435
     45 C           9.1148    8.3651    0.0000 C.3     1  UNL1       -0.0201
     46 C           9.9220    7.7749    0.0000 C.3     1  UNL1        0.0535
     47 C           9.2222    9.3593    0.0000 C.3     1  UNL1       -0.0603
     48 C           8.5991   -2.8582    0.0000 C.3     1  UNL1        0.1885
     49 C           8.5991   -3.8582    0.0000 C.3     1  UNL1        0.1410
     50 C           7.7331   -4.3582    0.0000 C.3     1  UNL1        0.1212
     51 C           6.8671   -2.8582    0.0000 C.3     1  UNL1        0.0877
     52 C           6.8671   -3.8582    0.0000 C.3     1  UNL1        0.1164
     53 C           6.0010   -2.3582    0.0000 C.3     1  UNL1       -0.0360
     54 C          10.4499   -4.1846    0.0000 C.3     1  UNL1        0.1885
     55 C           8.2331   -6.2242    0.0000 C.3     1  UNL1        0.1883
     56 C          10.7920   -3.2449    0.0000 C.3     1  UNL1        0.1341
     57 C           5.1350   -3.8582    0.0000 C.3     1  UNL1        0.1883
     58 C           7.7331   -7.0903    0.0000 C.3     1  UNL1        0.1341
     59 C          11.7768   -3.0712    0.0000 C.3     1  UNL1        0.1141
     60 C          12.0775   -4.7770    0.0000 C.3     1  UNL1        0.1130
     61 C           4.2690   -4.3582    0.0000 C.3     1  UNL1        0.1341
     62 C          12.4196   -3.8373    0.0000 C.3     1  UNL1        0.1119
     63 C           8.2331   -7.9563    0.0000 C.3     1  UNL1        0.1140
     64 C           9.7331   -7.0903    0.0000 C.3     1  UNL1        0.0873
     65 C           3.4030   -3.8582    0.0000 C.3     1  UNL1        0.1140
     66 C           9.2331   -7.9563    0.0000 C.3     1  UNL1        0.1095
     67 C           4.2690   -2.3582    0.0000 C.3     1  UNL1        0.0873
     68 C           3.4030   -2.8582    0.0000 C.3     1  UNL1        0.1095
     69 C          12.7203   -5.5430    0.0000 C.3     1  UNL1        0.0730
     70 C          10.7331   -7.0903    0.0000 C.3     1  UNL1       -0.0361
     71 C           4.2690   -1.3582    0.0000 C.3     1  UNL1       -0.0361
     72 H           7.7896    3.0003    0.0000 H       1  UNL1        0.0310
     73 H          10.0757    4.7217    0.0000 H       1  UNL1        0.0335
     74 H           7.8329    2.7755    0.0000 H       1  UNL1        0.0310
     75 H           7.3972    5.0113    0.0000 H       1  UNL1        0.0600
     76 H          10.1659    1.4165    0.0000 H       1  UNL1        0.0312
     77 H           7.2982    4.3248    0.0000 H       1  UNL1        0.0293
     78 H           7.4661    3.5125    0.0000 H       1  UNL1        0.0293
     79 H          10.9101    3.2253    0.0000 H       1  UNL1        0.0271
     80 H          10.5143    3.9171    0.0000 H       1  UNL1        0.0271
     81 H          10.0225    5.2317    0.0000 H       1  UNL1        0.0354
     82 H          10.5059    1.7519    0.0000 H       1  UNL1        0.0268
     83 H          10.9071    2.4406    0.0000 H       1  UNL1        0.0268
     84 H          10.6118    3.7972    0.0000 H       1  UNL1        0.0235
     85 H          10.8420    4.6432    0.0000 H       1  UNL1        0.0235
     86 H           9.9959    4.8734    0.0000 H       1  UNL1        0.0235
     87 H           7.4498    2.4247    0.0000 H       1  UNL1        0.0310
     88 H           7.0401    1.7396    0.0000 H       1  UNL1        0.0310
     89 H          11.0022    0.1738    0.0000 H       1  UNL1        0.0274
     90 H          10.5924    0.8589    0.0000 H       1  UNL1        0.0274
     91 H          10.7393    5.3139    0.0000 H       1  UNL1        0.0234
     92 H          11.2177    6.0487    0.0000 H       1  UNL1        0.0234
     93 H          10.4830    6.5272    0.0000 H       1  UNL1        0.0234
     94 H           7.4970    7.1395    0.0000 H       1  UNL1        0.0317
     95 H           7.8190    6.4104    0.0000 H       1  UNL1        0.0317
     96 H           7.1008    0.4912    0.0000 H       1  UNL1        0.0572
     97 H          10.6164    0.7647    0.0000 H       1  UNL1        0.0238
     98 H          10.8400    1.6125    0.0000 H       1  UNL1        0.0238
     99 H           9.9922    1.8362    0.0000 H       1  UNL1        0.0238
    100 H           7.9180   -0.6990    0.0000 H       1  UNL1        0.0335
    101 H           8.3118   -1.3934    0.0000 H       1  UNL1        0.0335
    102 H          10.6185   -1.3934    0.0000 H       1  UNL1        0.0290
    103 H          11.0123   -0.6990    0.0000 H       1  UNL1        0.0290
    104 H          10.0027   -1.6672    0.0000 H       1  UNL1        0.0600
    105 H           8.0518    8.5631    0.0000 H       1  UNL1        0.0270
    106 H           7.5814    7.9197    0.0000 H       1  UNL1        0.0270
    107 H           8.6142    8.7310    0.0000 H       1  UNL1        0.0320
    108 H          10.5175    7.6022    0.0000 H       1  UNL1        0.0563
    109 H          10.1955    8.3313    0.0000 H       1  UNL1        0.0563
    110 H           9.8387    9.2926    0.0000 H       1  UNL1        0.0233
    111 H           9.2889    9.9757    0.0000 H       1  UNL1        0.0233
    112 H           8.6058    9.4259    0.0000 H       1  UNL1        0.0233
    113 H           8.5991   -2.2382    0.0000 H       1  UNL1        0.0938
    114 H           8.5991   -4.4782    0.0000 H       1  UNL1        0.0675
    115 H           7.1962   -4.6682    0.0000 H       1  UNL1        0.0652
    116 H           6.8671   -2.2382    0.0000 H       1  UNL1        0.0621
    117 H           6.3301   -3.5482    0.0000 H       1  UNL1        0.0650
    118 H           6.3110   -1.8213    0.0000 H       1  UNL1        0.0255
    119 H           5.4641   -2.0482    0.0000 H       1  UNL1        0.0255
    120 H           5.6910   -2.8952    0.0000 H       1  UNL1        0.0255
    121 H          10.0514   -3.7096    0.0000 H       1  UNL1        0.0938
    122 H           8.5431   -5.6873    0.0000 H       1  UNL1        0.0938
    123 H          11.0040   -2.6623    0.0000 H       1  UNL1        0.0671
    124 H           5.1350   -4.4782    0.0000 H       1  UNL1        0.0938
    125 H           7.4231   -6.5534    0.0000 H       1  UNL1        0.0671
    126 H          12.3874   -2.9636    0.0000 H       1  UNL1        0.0648
    127 H          11.8655   -5.3596    0.0000 H       1  UNL1        0.0647
    128 H           3.7320   -4.6682    0.0000 H       1  UNL1        0.0671
    129 H          12.8181   -4.3122    0.0000 H       1  UNL1        0.0647
    130 H           8.5431   -8.4932    0.0000 H       1  UNL1        0.0648
    131 H          10.0431   -6.5533    0.0000 H       1  UNL1        0.0621
    132 H           2.8660   -3.5482    0.0000 H       1  UNL1        0.0648
    133 H           9.8531   -7.9563    0.0000 H       1  UNL1        0.0646
    134 H          10.3612   -1.8962    0.0000 H       1  UNL1        0.2101
    135 H           4.8059   -2.0482    0.0000 H       1  UNL1        0.0621
    136 H           3.4030   -2.2382    0.0000 H       1  UNL1        0.0646
    137 H          13.2573   -5.8530    0.0000 H       1  UNL1        0.0584
    138 H          13.1189   -5.0681    0.0000 H       1  UNL1        0.0584
    139 H           6.4232   -7.6273    0.0000 H       1  UNL1        0.2101
    140 H          12.7294   -2.0239    0.0000 H       1  UNL1        0.2100
    141 H           3.7320   -5.6682    0.0000 H       1  UNL1        0.2101
    142 H          10.7331   -7.7103    0.0000 H       1  UNL1        0.0255
    143 H          11.3531   -7.0903    0.0000 H       1  UNL1        0.0255
    144 H          10.7331   -6.4703    0.0000 H       1  UNL1        0.0255
    145 H          13.8029   -4.1386    0.0000 H       1  UNL1        0.2100
    146 H           8.0431   -9.3593    0.0000 H       1  UNL1        0.2100
    147 H           4.8890   -1.3582    0.0000 H       1  UNL1        0.0255
    148 H           4.2690   -0.7382    0.0000 H       1  UNL1        0.0255
    149 H           3.6490   -1.3582    0.0000 H       1  UNL1        0.0255
    150 H           2.0000   -4.0482    0.0000 H       1  UNL1        0.2100
    151 H           9.4231   -9.3593    0.0000 H       1  UNL1        0.2100
    152 H           2.5369   -1.7382    0.0000 H       1  UNL1        0.2100
    153 H          12.7768   -6.9577    0.0000 H       1  UNL1        0.2095
@<TRIPOS>BOND
     1     1    25    1
     2    32     1    1
     3     2    32    1
     4     2    46    1
     5    43     3    1
     6    48     3    1
     7     4    48    1
     8     4    51    1
     9    49     5    1
    10    54     5    1
    11    50     6    1
    12    55     6    1
    13    52     7    1
    14    57     7    1
    15     8    54    1
    16     8    60    1
    17     9    55    1
    18     9    64    1
    19    10    57    1
    20    10    67    1
    21    56    11    1
    22    11   134    1
    23    58    12    1
    24    12   139    1
    25    59    13    1
    26    13   140    1
    27    61    14    1
    28    14   141    1
    29    62    15    1
    30    15   145    1
    31    63    16    1
    32    16   146    1
    33    65    17    1
    34    17   150    1
    35    66    18    1
    36    18   151    1
    37    68    19    1
    38    19   152    1
    39    20    69    1
    40    20   153    1
    41    21    22    1
    42    21    23    1
    43    21    28    1
    44    21    33    1
    45    22    24    1
    46    22    27    1
    47    22    72    1
    48    23    25    1
    49    23    29    1
    50    23    73    1
    51    24    26    1
    52    24    34    1
    53    24    74    1
    54    25    27    1
    55    25    75    1
    56    26    30    1
    57    26    31    1
    58    26    76    1
    59    27    77    1
    60    27    78    1
    61    28    30    1
    62    28    79    1
    63    28    80    1
    64    29    32    1
    65    29    37    1
    66    29    81    1
    67    30    82    1
    68    30    83    1
    69    31    35    1
    70    31    36    1
    71    31    40    1
    72    32    38    1
    73    33    84    1
    74    33    85    1
    75    33    86    1
    76    34    39    1
    77    34    87    1
    78    34    88    1
    79    35    39    2
    80    35    41    1
    81    36    42    1
    82    36    89    1
    83    36    90    1
    84    37    91    1
    85    37    92    1
    86    37    93    1
    87    38    44    1
    88    38    94    1
    89    38    95    1
    90    39    96    1
    91    40    97    1
    92    40    98    1
    93    40    99    1
    94    41    43    1
    95    41   100    1
    96    41   101    1
    97    42    43    1
    98    42   102    1
    99    42   103    1
   100    43   104    1
   101    44    45    1
   102    44   105    1
   103    44   106    1
   104    45    46    1
   105    45    47    1
   106    45   107    1
   107    46   108    1
   108    46   109    1
   109    47   110    1
   110    47   111    1
   111    47   112    1
   112    48    49    1
   113    48   113    1
   114    49    50    1
   115    49   114    1
   116    50    52    1
   117    50   115    1
   118    51    52    1
   119    51    53    1
   120    51   116    1
   121    52   117    1
   122    53   118    1
   123    53   119    1
   124    53   120    1
   125    54    56    1
   126    54   121    1
   127    55    58    1
   128    55   122    1
   129    56    59    1
   130    56   123    1
   131    57    61    1
   132    57   124    1
   133    58    63    1
   134    58   125    1
   135    59    62    1
   136    59   126    1
   137    60    62    1
   138    60    69    1
   139    60   127    1
   140    61    65    1
   141    61   128    1
   142    62   129    1
   143    63    66    1
   144    63   130    1
   145    64    66    1
   146    64    70    1
   147    64   131    1
   148    65    68    1
   149    65   132    1
   150    66   133    1
   151    67    68    1
   152    67    71    1
   153    67   135    1
   154    68   136    1
   155    69   137    1
   156    69   138    1
   157    70   142    1
   158    70   143    1
   159    70   144    1
   160    71   147    1
   161    71   148    1
   162    71   149    1
