@<TRIPOS>MOLECULE
IMPHY016560
 26 26 0 0 0
SMALL
GASTEIGER

@<TRIPOS>ATOM
      1 O           2.6723   -2.3907    0.0000 O.3     1  UNL1       -0.3871
      2 O           5.5202   -0.3216    0.0000 O.2     1  UNL1       -0.2923
      3 C           3.2601   -1.5817    0.0000 C.3     1  UNL1        0.0836
      4 C           2.9511   -0.6307    0.0000 C.2     1  UNL1       -0.0374
      5 C           4.2601   -1.5817    0.0000 C.3     1  UNL1        0.0400
      6 C           3.7601   -0.0429    0.0000 C.2     1  UNL1        0.0002
      7 C           4.5691   -0.6307    0.0000 C.2     1  UNL1        0.1623
      8 C           3.7601    0.9571    0.0000 C.3     1  UNL1       -0.0062
      9 C           2.0000   -0.3216    0.0000 C.3     1  UNL1       -0.0407
     10 C           4.6261    1.4571    0.0000 C.2     1  UNL1       -0.0838
     11 C           4.6261    2.4571    0.0000 C.2     1  UNL1       -0.0907
     12 C           3.7601    2.9571    0.0000 C.3     1  UNL1       -0.0468
     13 H           2.6477   -1.4847    0.0000 H       1  UNL1        0.0645
     14 H           4.1953   -2.1983    0.0000 H       1  UNL1        0.0374
     15 H           4.8665   -1.7106    0.0000 H       1  UNL1        0.0374
     16 H           3.5480    1.5397    0.0000 H       1  UNL1        0.0357
     17 H           3.1495    0.8495    0.0000 H       1  UNL1        0.0357
     18 H           2.1916    0.2680    0.0000 H       1  UNL1        0.0275
     19 H           1.4103   -0.1300    0.0000 H       1  UNL1        0.0275
     20 H           1.8084   -0.9113    0.0000 H       1  UNL1        0.0275
     21 H           2.9245   -2.9571    0.0000 H       1  UNL1        0.2102
     22 H           5.1630    1.1471    0.0000 H       1  UNL1        0.0572
     23 H           5.1630    2.7671    0.0000 H       1  UNL1        0.0566
     24 H           4.0701    3.4941    0.0000 H       1  UNL1        0.0272
     25 H           3.2231    3.2671    0.0000 H       1  UNL1        0.0272
     26 H           3.4501    2.4202    0.0000 H       1  UNL1        0.0272
@<TRIPOS>BOND
     1     1     3    1
     2     1    21    1
     3     2     7    2
     4     3     4    1
     5     3     5    1
     6     3    13    1
     7     4     6    2
     8     4     9    1
     9     5     7    1
    10     5    14    1
    11     5    15    1
    12     6     7    1
    13     6     8    1
    14     8    10    1
    15     8    16    1
    16     8    17    1
    17     9    18    1
    18     9    19    1
    19     9    20    1
    20    10    11    2
    21    10    22    1
    22    11    12    1
    23    11    23    1
    24    12    24    1
    25    12    25    1
    26    12    26    1
