@<TRIPOS>MOLECULE
IMPHY005298
 28 30 0 0 0
SMALL
GASTEIGER

@<TRIPOS>ATOM
      1 O           5.1738   -1.7673    0.0000 O.2     1  UNL1       -0.4569
      2 O           8.7460   -1.5374    0.0000 O.2     1  UNL1       -0.4627
      3 O           6.9338    1.2673    0.0000 O.3     1  UNL1       -0.4936
      4 O           5.1854    1.3019    0.0000 O.2     1  UNL1       -0.2869
      5 O           2.5357   -1.2602    0.0000 O.3     1  UNL1       -0.3873
      6 C           6.0678   -0.2327    0.0000 C.ar    1  UNL1        0.1063
      7 C           7.7998   -0.2327    0.0000 C.ar    1  UNL1        0.0627
      8 C           6.9338    0.2673    0.0000 C.ar    1  UNL1        0.1452
      9 C           6.0678   -1.2327    0.0000 C.ar    1  UNL1        0.1459
     10 C           7.7998   -1.2327    0.0000 C.ar    1  UNL1        0.1418
     11 C           6.9338   -1.7327    0.0000 C.ar    1  UNL1        0.0245
     12 C           5.1738    0.3020    0.0000 C.ar    1  UNL1        0.1964
     13 C           4.2678   -1.2535    0.0000 C.ar    1  UNL1        0.1345
     14 C           8.7460    0.0721    0.0000 C.ar    1  UNL1       -0.0126
     15 C           4.2678   -0.2119    0.0000 C.ar    1  UNL1        0.0263
     16 C           9.3297   -0.7327    0.0000 C.ar    1  UNL1        0.0933
     17 C           3.4037   -1.7568    0.0000 C.3     1  UNL1        0.1020
     18 C           7.7998    1.7673    0.0000 C.3     1  UNL1        0.0788
     19 H           6.9338   -2.3527    0.0000 H       1  UNL1        0.0692
     20 H           8.9387    0.6614    0.0000 H       1  UNL1        0.0656
     21 H           3.7320    0.1002    0.0000 H       1  UNL1        0.0690
     22 H           9.9497   -0.7327    0.0000 H       1  UNL1        0.1030
     23 H           3.0070   -2.2333    0.0000 H       1  UNL1        0.0638
     24 H           3.8040   -2.2302    0.0000 H       1  UNL1        0.0638
     25 H           8.1098    1.2304    0.0000 H       1  UNL1        0.0660
     26 H           8.3368    2.0773    0.0000 H       1  UNL1        0.0660
     27 H           7.4898    2.3043    0.0000 H       1  UNL1        0.0660
     28 H           2.0000   -1.5722    0.0000 H       1  UNL1        0.2100
@<TRIPOS>BOND
     1     1     9   ar
     2     1    13   ar
     3     2    10   ar
     4     2    16   ar
     5     3     8    1
     6     3    18    1
     7     4    12    2
     8     5    17    1
     9     5    28    1
    10     6     8   ar
    11     6     9   ar
    12     6    12   ar
    13     7     8   ar
    14     7    10   ar
    15     7    14   ar
    16     9    11   ar
    17    10    11   ar
    18    11    19    1
    19    12    15   ar
    20    13    15   ar
    21    13    17    1
    22    14    16   ar
    23    14    20    1
    24    15    21    1
    25    16    22    1
    26    17    23    1
    27    17    24    1
    28    18    25    1
    29    18    26    1
    30    18    27    1
