@<TRIPOS>MOLECULE
IMPHY002495
 101 106 0 0 0
SMALL
GASTEIGER

@<TRIPOS>ATOM
      1 O           5.1804    0.6099    0.0000 O.3     1  UNL1       -0.3912
      2 O          10.4417   -0.4139    0.0000 O.3     1  UNL1       -0.3451
      3 O           2.5381   -2.9457    0.0000 O.3     1  UNL1       -0.3912
      4 O          10.4284   -2.1459    0.0000 O.3     1  UNL1       -0.3461
      5 O          12.4417   -0.4293    0.0000 O.3     1  UNL1       -0.3841
      6 O          13.4283   -2.1690    0.0000 O.3     1  UNL1       -0.3864
      7 O          12.0985    1.9808    0.0000 O.2     1  UNL1       -0.2971
      8 O          12.4150   -3.8933    0.0000 O.3     1  UNL1       -0.3869
      9 C           6.0682   -0.9215    0.0000 C.3     1  UNL1        0.0065
     10 C           5.2022   -1.4215    0.0000 C.3     1  UNL1       -0.0169
     11 C           5.2020   -0.4211    0.0000 C.3     1  UNL1       -0.0377
     12 C           6.9343   -1.4215    0.0000 C.3     1  UNL1       -0.0265
     13 C           5.2022   -2.4215    0.0000 C.3     1  UNL1       -0.0273
     14 C           7.8443   -0.9147    0.0000 C.3     1  UNL1       -0.0205
     15 C           6.0522    0.1200    0.0000 C.3     1  UNL1        0.0622
     16 C           7.8523    0.1269    0.0000 C.3     1  UNL1       -0.0186
     17 C           4.3083   -0.8868    0.0000 C.3     1  UNL1       -0.0441
     18 C           6.9343   -2.4215    0.0000 C.3     1  UNL1       -0.0488
     19 C           6.9502    0.6478    0.0000 C.3     1  UNL1       -0.0200
     20 C           6.0682   -2.9215    0.0000 C.3     1  UNL1       -0.0488
     21 C           4.3083   -2.9562    0.0000 C.3     1  UNL1       -0.0056
     22 C           8.8403    0.4367    0.0000 C.3     1  UNL1       -0.0060
     23 C           8.8274   -1.2397    0.0000 C.3     1  UNL1       -0.0200
     24 C           3.4022   -1.4007    0.0000 C.3     1  UNL1       -0.0258
     25 C           9.4418   -0.4061    0.0000 C.3     1  UNL1        0.0659
     26 C           3.4022   -2.4423    0.0000 C.3     1  UNL1        0.0606
     27 C           7.8366   -1.9146    0.0000 C.3     1  UNL1       -0.0587
     28 C           7.8600    1.1269    0.0000 C.3     1  UNL1       -0.0586
     29 C           9.1583    1.3848    0.0000 C.3     1  UNL1       -0.0378
     30 C           3.8183   -3.8279    0.0000 C.3     1  UNL1       -0.0572
     31 C           4.8183   -3.8164    0.0000 C.3     1  UNL1       -0.0572
     32 C          10.1384    1.5835    0.0000 C.3     1  UNL1       -0.0434
     33 C           8.4962    2.1343    0.0000 C.3     1  UNL1       -0.0621
     34 C          10.9350   -1.2837    0.0000 C.3     1  UNL1        0.1878
     35 C          10.4564    2.5316    0.0000 C.3     1  UNL1        0.0063
     36 C          11.9350   -1.2914    0.0000 C.3     1  UNL1        0.1341
     37 C          11.4364    2.7303    0.0000 C.2     1  UNL1        0.1359
     38 C          12.4283   -2.1613    0.0000 C.3     1  UNL1        0.1137
     39 C          10.9217   -3.0157    0.0000 C.3     1  UNL1        0.0792
     40 C          11.9217   -3.0234    0.0000 C.3     1  UNL1        0.1069
     41 C          11.7544    3.6784    0.0000 C.3     1  UNL1        0.0119
     42 C          12.7345    3.8770    0.0000 C.3     1  UNL1       -0.0560
     43 C          11.0923    4.4278    0.0000 C.3     1  UNL1       -0.0560
     44 H           5.4141    0.1615    0.0000 H       1  UNL1        0.0277
     45 H           4.5914   -0.3135    0.0000 H       1  UNL1        0.0277
     46 H           7.6671   -1.8522    0.0000 H       1  UNL1        0.0313
     47 H           5.2088   -3.2715    0.0000 H       1  UNL1        0.0312
     48 H           6.0462    0.7400    0.0000 H       1  UNL1        0.0599
     49 H           4.7129   -0.4171    0.0000 H       1  UNL1        0.0272
     50 H           3.9147   -0.4078    0.0000 H       1  UNL1        0.0272
     51 H           7.1463   -3.0041    0.0000 H       1  UNL1        0.0268
     52 H           7.5449   -2.3138    0.0000 H       1  UNL1        0.0268
     53 H           7.3475    1.1237    0.0000 H       1  UNL1        0.0296
     54 H           6.5493    1.1206    0.0000 H       1  UNL1        0.0296
     55 H           5.6697   -3.3965    0.0000 H       1  UNL1        0.0268
     56 H           6.4668   -3.3965    0.0000 H       1  UNL1        0.0268
     57 H           8.2453    1.0437    0.0000 H       1  UNL1        0.0334
     58 H           8.5720   -1.8046    0.0000 H       1  UNL1        0.0296
     59 H           9.3624   -1.5530    0.0000 H       1  UNL1        0.0296
     60 H           3.1932   -0.8170    0.0000 H       1  UNL1        0.0290
     61 H           2.7914   -1.5068    0.0000 H       1  UNL1        0.0290
     62 H           9.7192   -0.9606    0.0000 H       1  UNL1        0.0600
     63 H           3.4058   -3.0623    0.0000 H       1  UNL1        0.0599
     64 H           7.2166   -1.9099    0.0000 H       1  UNL1        0.0235
     65 H           7.8318   -2.5346    0.0000 H       1  UNL1        0.0235
     66 H           8.4566   -1.9194    0.0000 H       1  UNL1        0.0235
     67 H           8.4800    1.1221    0.0000 H       1  UNL1        0.0235
     68 H           7.8648    1.7469    0.0000 H       1  UNL1        0.0235
     69 H           7.2400    1.1317    0.0000 H       1  UNL1        0.0235
     70 H           9.3555    1.9727    0.0000 H       1  UNL1        0.0302
     71 H           5.1733    1.2299    0.0000 H       1  UNL1        0.2098
     72 H           4.2850   -4.1326    0.0000 H       1  UNL1        0.0236
     73 H           5.1344   -4.3497    0.0000 H       1  UNL1        0.0236
     74 H           5.3516   -3.5002    0.0000 H       1  UNL1        0.0236
     75 H           3.2778   -3.5242    0.0000 H       1  UNL1        0.0236
     76 H           3.5146   -4.3684    0.0000 H       1  UNL1        0.0236
     77 H           4.3588   -4.1317    0.0000 H       1  UNL1        0.0236
     78 H           2.0000   -2.6377    0.0000 H       1  UNL1        0.2098
     79 H          10.1542    0.9637    0.0000 H       1  UNL1        0.0272
     80 H          10.7515    1.4914    0.0000 H       1  UNL1        0.0272
     81 H           8.9609    2.5448    0.0000 H       1  UNL1        0.0233
     82 H           8.0857    2.5989    0.0000 H       1  UNL1        0.0233
     83 H           8.0316    1.7238    0.0000 H       1  UNL1        0.0233
     84 H          11.2492   -0.7492    0.0000 H       1  UNL1        0.0937
     85 H          10.4406    3.1514    0.0000 H       1  UNL1        0.0342
     86 H           9.8432    2.6237    0.0000 H       1  UNL1        0.0342
     87 H          12.5550   -1.2962    0.0000 H       1  UNL1        0.0671
     88 H          12.7342   -2.7006    0.0000 H       1  UNL1        0.0647
     89 H          10.3375   -3.2233    0.0000 H       1  UNL1        0.0587
     90 H          11.0246   -3.6271    0.0000 H       1  UNL1        0.0587
     91 H          11.6075   -3.5580    0.0000 H       1  UNL1        0.0643
     92 H          13.0617   -0.4341    0.0000 H       1  UNL1        0.2101
     93 H          12.1649    3.2137    0.0000 H       1  UNL1        0.0372
     94 H          13.7341   -2.7083    0.0000 H       1  UNL1        0.2100
     95 H          11.5570    4.8383    0.0000 H       1  UNL1        0.0236
     96 H          10.6818    4.8924    0.0000 H       1  UNL1        0.0236
     97 H          10.6277    4.0173    0.0000 H       1  UNL1        0.0236
     98 H          12.8577    3.2694    0.0000 H       1  UNL1        0.0236
     99 H          13.3421    4.0002    0.0000 H       1  UNL1        0.0236
    100 H          12.6113    4.4847    0.0000 H       1  UNL1        0.0236
    101 H          12.1008   -4.4278    0.0000 H       1  UNL1        0.2100
@<TRIPOS>BOND
     1    15     1    1
     2     1    71    1
     3    25     2    1
     4    34     2    1
     5    26     3    1
     6     3    78    1
     7     4    34    1
     8     4    39    1
     9    36     5    1
    10     5    92    1
    11    38     6    1
    12     6    94    1
    13     7    37    2
    14    40     8    1
    15     8   101    1
    16     9    10    1
    17     9    11    1
    18     9    12    1
    19     9    15    1
    20    10    11    1
    21    10    13    1
    22    10    17    1
    23    11    44    1
    24    11    45    1
    25    12    14    1
    26    12    18    1
    27    12    46    1
    28    13    20    1
    29    13    21    1
    30    13    47    1
    31    14    16    1
    32    14    23    1
    33    14    27    1
    34    15    19    1
    35    15    48    1
    36    16    19    1
    37    16    22    1
    38    16    28    1
    39    17    24    1
    40    17    49    1
    41    17    50    1
    42    18    20    1
    43    18    51    1
    44    18    52    1
    45    19    53    1
    46    19    54    1
    47    20    55    1
    48    20    56    1
    49    21    26    1
    50    21    30    1
    51    21    31    1
    52    22    25    1
    53    22    29    1
    54    22    57    1
    55    23    25    1
    56    23    58    1
    57    23    59    1
    58    24    26    1
    59    24    60    1
    60    24    61    1
    61    25    62    1
    62    26    63    1
    63    27    64    1
    64    27    65    1
    65    27    66    1
    66    28    67    1
    67    28    68    1
    68    28    69    1
    69    29    32    1
    70    29    33    1
    71    29    70    1
    72    30    75    1
    73    30    76    1
    74    30    77    1
    75    31    72    1
    76    31    73    1
    77    31    74    1
    78    32    35    1
    79    32    79    1
    80    32    80    1
    81    33    81    1
    82    33    82    1
    83    33    83    1
    84    34    36    1
    85    34    84    1
    86    35    37    1
    87    35    85    1
    88    35    86    1
    89    36    38    1
    90    36    87    1
    91    37    41    1
    92    38    40    1
    93    38    88    1
    94    39    40    1
    95    39    89    1
    96    39    90    1
    97    40    91    1
    98    41    42    1
    99    41    43    1
   100    41    93    1
   101    42    98    1
   102    42    99    1
   103    42   100    1
   104    43    95    1
   105    43    96    1
   106    43    97    1
