@<TRIPOS>MOLECULE
IMPHY009361
 19 19 0 0 0
SMALL
GASTEIGER

@<TRIPOS>ATOM
      1 N           3.7320    2.7500    0.0000 N.1     1  UNL1       -0.1966
      2 C           2.8660    0.2500    0.0000 C.3     1  UNL1       -0.0149
      3 C           2.8660   -0.7500    0.0000 C.ar    1  UNL1       -0.0464
      4 C           3.7320    0.7500    0.0000 C.3     1  UNL1        0.0388
      5 C           2.0000   -1.2500    0.0000 C.ar    1  UNL1       -0.0585
      6 C           3.7320   -1.2500    0.0000 C.ar    1  UNL1       -0.0585
      7 C           2.0000   -2.2500    0.0000 C.ar    1  UNL1       -0.0615
      8 C           3.7320   -2.2500    0.0000 C.ar    1  UNL1       -0.0615
      9 C           2.8660   -2.7500    0.0000 C.ar    1  UNL1       -0.0617
     10 C           3.7320    1.7500    0.0000 C.1     1  UNL1        0.0628
     11 H           2.6540    0.8326    0.0000 H       1  UNL1        0.0323
     12 H           2.2554    0.1423    0.0000 H       1  UNL1        0.0323
     13 H           3.9441    0.1674    0.0000 H       1  UNL1        0.0421
     14 H           4.3426    0.8577    0.0000 H       1  UNL1        0.0421
     15 H           1.4631   -0.9400    0.0000 H       1  UNL1        0.0620
     16 H           4.2690   -0.9400    0.0000 H       1  UNL1        0.0620
     17 H           1.4631   -2.5600    0.0000 H       1  UNL1        0.0618
     18 H           4.2690   -2.5600    0.0000 H       1  UNL1        0.0618
     19 H           2.8660   -3.3700    0.0000 H       1  UNL1        0.0618
@<TRIPOS>BOND
     1     1    10    3
     2     2     3    1
     3     2     4    1
     4     2    11    1
     5     2    12    1
     6     3     5   ar
     7     3     6   ar
     8     4    10    1
     9     4    13    1
    10     4    14    1
    11     5     7   ar
    12     5    15    1
    13     6     8   ar
    14     6    16    1
    15     7     9   ar
    16     7    17    1
    17     8     9   ar
    18     8    18    1
    19     9    19    1
