@<TRIPOS>MOLECULE
IMPHY002865
 58 60 0 0 0
SMALL
GASTEIGER

@<TRIPOS>ATOM
      1 O          10.7404   -0.8047    0.0000 O.3     1  UNL1       -0.4525
      2 O          10.7404    0.8047    0.0000 O.3     1  UNL1       -0.4489
      3 O           8.9282    2.0000    0.0000 O.3     1  UNL1       -0.4906
      4 O           7.1962    2.0000    0.0000 O.2     1  UNL1       -0.2830
      5 O           6.3301   -0.5000    0.0000 O.2     1  UNL1       -0.2832
      6 O           2.8660    0.5000    0.0000 O.3     1  UNL1       -0.4906
      7 O           2.8660    2.5000    0.0000 O.3     1  UNL1       -0.4914
      8 O           3.7320   -1.0000    0.0000 O.3     1  UNL1       -0.4770
      9 O           5.4641   -1.0000    0.0000 O.2     1  UNL1       -0.2450
     10 N           6.3301   -2.5000    0.0000 N.3     1  UNL1       -0.3080
     11 C           8.0622   -0.5000    0.0000 C.ar    1  UNL1       -0.0280
     12 C           7.1962   -1.0000    0.0000 C.3     1  UNL1       -0.0140
     13 C           8.0622    0.5000    0.0000 C.ar    1  UNL1        0.0742
     14 C           7.1962   -2.0000    0.0000 C.3     1  UNL1        0.0023
     15 C           8.9282   -1.0000    0.0000 C.ar    1  UNL1       -0.0120
     16 C           8.9282    1.0000    0.0000 C.ar    1  UNL1        0.1765
     17 C           9.7942   -0.5000    0.0000 C.ar    1  UNL1        0.1702
     18 C           9.7942    0.5000    0.0000 C.ar    1  UNL1        0.2082
     19 C           7.1962    1.0000    0.0000 C.2     1  UNL1        0.2368
     20 C          11.3241    0.0000    0.0000 C.3     1  UNL1        0.2334
     21 C           6.3301    0.5000    0.0000 C.2     1  UNL1        0.2340
     22 C           6.3301   -3.5000    0.0000 C.3     1  UNL1       -0.0130
     23 C           5.4641   -2.0000    0.0000 C.3     1  UNL1       -0.0130
     24 C           5.4641    1.0000    0.0000 C.ar    1  UNL1        0.0433
     25 C           4.5981    0.5000    0.0000 C.ar    1  UNL1        0.1148
     26 C           5.4641    2.0000    0.0000 C.ar    1  UNL1       -0.0463
     27 C           3.7320    1.0000    0.0000 C.ar    1  UNL1        0.1761
     28 C           9.7942    2.5000    0.0000 C.3     1  UNL1        0.0790
     29 C           3.7320    2.0000    0.0000 C.ar    1  UNL1        0.1623
     30 C           4.5981    2.5000    0.0000 C.ar    1  UNL1       -0.0156
     31 C           4.5981   -0.5000    0.0000 C.2     1  UNL1        0.3412
     32 C           2.0000    1.0000    0.0000 C.3     1  UNL1        0.0790
     33 C           2.8660    3.5000    0.0000 C.3     1  UNL1        0.0790
     34 H           6.9841   -0.4174    0.0000 H       1  UNL1        0.0326
     35 H           6.5856   -1.1077    0.0000 H       1  UNL1        0.0326
     36 H           7.4082   -2.5826    0.0000 H       1  UNL1        0.0429
     37 H           7.8067   -1.8923    0.0000 H       1  UNL1        0.0429
     38 H           8.9282   -1.6200    0.0000 H       1  UNL1        0.0658
     39 H          11.7849   -0.4147    0.0000 H       1  UNL1        0.1166
     40 H          11.7849    0.4147    0.0000 H       1  UNL1        0.1166
     41 H           5.7101   -3.5000    0.0000 H       1  UNL1        0.0391
     42 H           6.3301   -4.1200    0.0000 H       1  UNL1        0.0391
     43 H           6.9501   -3.5000    0.0000 H       1  UNL1        0.0391
     44 H           5.7741   -1.4631    0.0000 H       1  UNL1        0.0391
     45 H           4.9272   -1.6900    0.0000 H       1  UNL1        0.0391
     46 H           5.1541   -2.5369    0.0000 H       1  UNL1        0.0391
     47 H           6.0010    2.3100    0.0000 H       1  UNL1        0.0626
     48 H          10.1042    1.9631    0.0000 H       1  UNL1        0.0660
     49 H          10.3312    2.8100    0.0000 H       1  UNL1        0.0660
     50 H           9.4842    3.0369    0.0000 H       1  UNL1        0.0660
     51 H           4.5981    3.1200    0.0000 H       1  UNL1        0.0655
     52 H           2.3100    1.5369    0.0000 H       1  UNL1        0.0660
     53 H           1.4631    1.3100    0.0000 H       1  UNL1        0.0660
     54 H           1.6900    0.4631    0.0000 H       1  UNL1        0.0660
     55 H           3.4860    3.5000    0.0000 H       1  UNL1        0.0660
     56 H           2.8660    4.1200    0.0000 H       1  UNL1        0.0660
     57 H           2.2460    3.5000    0.0000 H       1  UNL1        0.0660
     58 H           3.7320   -1.6200    0.0000 H       1  UNL1        0.2954
@<TRIPOS>BOND
     1     1    17    1
     2     1    20    1
     3     2    18    1
     4     2    20    1
     5     3    16    1
     6     3    28    1
     7     4    19    2
     8     5    21    2
     9     6    27    1
    10     6    32    1
    11     7    29    1
    12     7    33    1
    13     8    31    1
    14     8    58    1
    15     9    31    2
    16    10    14    1
    17    10    22    1
    18    10    23    1
    19    11    12    1
    20    11    13   ar
    21    11    15   ar
    22    12    14    1
    23    12    34    1
    24    12    35    1
    25    13    16   ar
    26    13    19    1
    27    14    36    1
    28    14    37    1
    29    15    17   ar
    30    15    38    1
    31    16    18   ar
    32    17    18   ar
    33    19    21    1
    34    20    39    1
    35    20    40    1
    36    21    24    1
    37    22    41    1
    38    22    42    1
    39    22    43    1
    40    23    44    1
    41    23    45    1
    42    23    46    1
    43    24    25   ar
    44    24    26   ar
    45    25    27   ar
    46    25    31    1
    47    26    30   ar
    48    26    47    1
    49    27    29   ar
    50    28    48    1
    51    28    49    1
    52    28    50    1
    53    29    30   ar
    54    30    51    1
    55    32    52    1
    56    32    53    1
    57    32    54    1
    58    33    55    1
    59    33    56    1
    60    33    57    1
