@<TRIPOS>MOLECULE
IMPHY008620
 90 95 0 0 0
SMALL
GASTEIGER

@<TRIPOS>ATOM
      1 O           6.0538    2.2374    0.0000 O.3     1  UNL1       -0.3403
      2 O           2.5357   -0.8077    0.0000 O.3     1  UNL1       -0.3912
      3 O           6.1340    0.4382    0.0000 O.3     1  UNL1       -0.3873
      4 O           4.5357    3.2064    0.0000 O.3     1  UNL1       -0.4569
      5 O           6.1172    2.6689    0.0000 O.3     1  UNL1       -0.4551
      6 O           5.1877    3.7374    0.0000 O.3     1  UNL1       -0.4342
      7 O           7.0120   -0.3082    0.0000 O.2     1  UNL1       -0.2971
      8 O           3.4373   -4.4916    0.0000 O.2     1  UNL1       -0.2967
      9 O           7.0778   -5.0695    0.0000 O.2     1  UNL1       -0.4707
     10 O           2.8885    3.7417    0.0000 O.2     1  UNL1       -0.2512
     11 O           7.4441    1.5556    0.0000 O.2     1  UNL1       -0.2512
     12 O           6.9198    3.7374    0.0000 O.2     1  UNL1       -0.2505
     13 C           5.1877    0.7374    0.0000 C.3     1  UNL1        0.0375
     14 C           4.3058   -0.8319    0.0000 C.3     1  UNL1        0.0078
     15 C           5.2038   -0.3041    0.0000 C.3     1  UNL1        0.0360
     16 C           4.3217    1.2374    0.0000 C.3     1  UNL1       -0.0131
     17 C           4.2974   -1.9169    0.0000 C.3     1  UNL1       -0.0192
     18 C           4.3217    2.2374    0.0000 C.3     1  UNL1        0.0744
     19 C           5.2370   -2.4594    0.0000 C.3     1  UNL1       -0.0080
     20 C           3.4037   -0.3111    0.0000 C.3     1  UNL1        0.0618
     21 C           3.4117    0.7305    0.0000 C.3     1  UNL1       -0.0220
     22 C           5.3908    1.1073    0.0000 C.3     1  UNL1        0.1042
     23 C           6.0538    1.2374    0.0000 C.3     1  UNL1        0.0607
     24 C           4.7436    2.2283    0.0000 C.3     1  UNL1        0.1535
     25 C           6.1557   -0.8248    0.0000 C.2     1  UNL1        0.1383
     26 C           5.4745    1.9029    0.0000 C.3     1  UNL1        0.1666
     27 C           6.1725   -1.9096    0.0000 C.3     1  UNL1        0.0128
     28 C           5.1877    2.7374    0.0000 C.3     1  UNL1        0.2139
     29 C           3.4977   -2.6406    0.0000 C.3     1  UNL1        0.0104
     30 C           5.0100   -3.5138    0.0000 C.3     1  UNL1        0.0515
     31 C           3.4436   -1.3386    0.0000 C.3     1  UNL1       -0.0563
     32 C           3.4557    2.7374    0.0000 C.3     1  UNL1       -0.0500
     33 C           3.9373   -3.6256    0.0000 C.2     1  UNL1        0.1416
     34 C           6.1031   -2.9594    0.0000 C.3     1  UNL1       -0.0579
     35 C           5.6779   -4.2581    0.0000 C.ar    1  UNL1        0.0010
     36 C           5.4683   -5.2359    0.0000 C.ar    1  UNL1       -0.0201
     37 C           6.6726   -4.1553    0.0000 C.ar    1  UNL1        0.0955
     38 C           3.8666    3.9496    0.0000 C.2     1  UNL1        0.3043
     39 C           7.1020    2.4953    0.0000 C.2     1  UNL1        0.3044
     40 C           6.0538    4.2374    0.0000 C.2     1  UNL1        0.3118
     41 C           6.3334   -5.7374    0.0000 C.ar    1  UNL1        0.0920
     42 C           6.0538    5.2374    0.0000 C.3     1  UNL1        0.0509
     43 C           4.1756    4.9006    0.0000 C.3     1  UNL1        0.0332
     44 C           7.7448    3.2613    0.0000 C.3     1  UNL1        0.0332
     45 C           6.9198    5.7374    0.0000 C.3     1  UNL1       -0.0525
     46 C           5.1877    5.7374    0.0000 C.3     1  UNL1       -0.0525
     47 H           5.9316    0.1350    0.0000 H       1  UNL1        0.0391
     48 H           3.5889    1.6680    0.0000 H       1  UNL1        0.0317
     49 H           3.5218   -1.5692    0.0000 H       1  UNL1        0.0317
     50 H           2.6700    0.1182    0.0000 H       1  UNL1        0.0599
     51 H           3.2072    1.3158    0.0000 H       1  UNL1        0.0293
     52 H           2.8001    0.6291    0.0000 H       1  UNL1        0.0293
     53 H           6.1844    1.4119    0.0000 H       1  UNL1        0.0638
     54 H           6.2658    0.6548    0.0000 H       1  UNL1        0.0568
     55 H           6.6644    1.3450    0.0000 H       1  UNL1        0.0568
     56 H           5.4042    2.7632    0.0000 H       1  UNL1        0.0780
     57 H           5.2832    2.7311    0.0000 H       1  UNL1        0.0798
     58 H           6.3905   -2.4900    0.0000 H       1  UNL1        0.0347
     59 H           6.7816   -1.7941    0.0000 H       1  UNL1        0.0347
     60 H           4.4516    3.1624    0.0000 H       1  UNL1        0.1064
     61 H           3.1323   -2.1398    0.0000 H       1  UNL1        0.0345
     62 H           2.9612   -2.9514    0.0000 H       1  UNL1        0.0345
     63 H           4.7044   -4.3069    0.0000 H       1  UNL1        0.0432
     64 H           3.1295   -0.8040    0.0000 H       1  UNL1        0.0236
     65 H           2.9091   -1.6527    0.0000 H       1  UNL1        0.0236
     66 H           3.7578   -1.8731    0.0000 H       1  UNL1        0.0236
     67 H           3.7657    3.2743    0.0000 H       1  UNL1        0.0238
     68 H           2.9188    3.0474    0.0000 H       1  UNL1        0.0238
     69 H           3.1457    2.2004    0.0000 H       1  UNL1        0.0238
     70 H           5.7931   -3.4963    0.0000 H       1  UNL1        0.0236
     71 H           6.6400   -3.2694    0.0000 H       1  UNL1        0.0236
     72 H           6.4131   -2.4224    0.0000 H       1  UNL1        0.0236
     73 H           2.0000   -0.4957    0.0000 H       1  UNL1        0.2098
     74 H           6.0051   -0.1683    0.0000 H       1  UNL1        0.2100
     75 H           4.9014   -5.4871    0.0000 H       1  UNL1        0.0652
     76 H           6.9835   -3.6189    0.0000 H       1  UNL1        0.1032
     77 H           6.3972   -6.3541    0.0000 H       1  UNL1        0.1029
     78 H           6.0538    5.8574    0.0000 H       1  UNL1        0.0408
     79 H           4.7652    4.7091    0.0000 H       1  UNL1        0.0342
     80 H           4.3672    5.4903    0.0000 H       1  UNL1        0.0342
     81 H           3.5859    5.0922    0.0000 H       1  UNL1        0.0342
     82 H           8.2198    2.8628    0.0000 H       1  UNL1        0.0342
     83 H           8.1434    3.7363    0.0000 H       1  UNL1        0.0342
     84 H           7.2699    3.6599    0.0000 H       1  UNL1        0.0342
     85 H           7.2298    5.2004    0.0000 H       1  UNL1        0.0237
     86 H           7.4567    6.0474    0.0000 H       1  UNL1        0.0237
     87 H           6.6098    6.2743    0.0000 H       1  UNL1        0.0237
     88 H           5.4977    6.2743    0.0000 H       1  UNL1        0.0237
     89 H           4.6508    6.0474    0.0000 H       1  UNL1        0.0237
     90 H           4.8777    5.2004    0.0000 H       1  UNL1        0.0237
@<TRIPOS>BOND
     1     1    23    1
     2     1    28    1
     3     2    20    1
     4     2    73    1
     5     3    22    1
     6     3    74    1
     7     4    24    1
     8     4    38    1
     9     5    26    1
    10     5    39    1
    11     6    28    1
    12     6    40    1
    13     7    25    2
    14     8    33    2
    15     9    37   ar
    16     9    41   ar
    17    10    38    2
    18    11    39    2
    19    12    40    2
    20    13    15    1
    21    13    16    1
    22    13    22    1
    23    13    23    1
    24    14    15    1
    25    14    17    1
    26    14    20    1
    27    14    31    1
    28    15    25    1
    29    15    47    1
    30    16    18    1
    31    16    21    1
    32    16    48    1
    33    17    19    1
    34    17    29    1
    35    17    49    1
    36    18    24    1
    37    18    28    1
    38    18    32    1
    39    19    27    1
    40    19    30    1
    41    19    34    1
    42    20    21    1
    43    20    50    1
    44    21    51    1
    45    21    52    1
    46    22    26    1
    47    22    53    1
    48    23    54    1
    49    23    55    1
    50    24    26    1
    51    24    56    1
    52    25    27    1
    53    26    57    1
    54    27    58    1
    55    27    59    1
    56    28    60    1
    57    29    33    1
    58    29    61    1
    59    29    62    1
    60    30    33    1
    61    30    35    1
    62    30    63    1
    63    31    64    1
    64    31    65    1
    65    31    66    1
    66    32    67    1
    67    32    68    1
    68    32    69    1
    69    34    70    1
    70    34    71    1
    71    34    72    1
    72    35    36   ar
    73    35    37   ar
    74    36    41   ar
    75    36    75    1
    76    37    76    1
    77    38    43    1
    78    39    44    1
    79    40    42    1
    80    41    77    1
    81    42    45    1
    82    42    46    1
    83    42    78    1
    84    43    79    1
    85    43    80    1
    86    43    81    1
    87    44    82    1
    88    44    83    1
    89    44    84    1
    90    45    85    1
    91    45    86    1
    92    45    87    1
    93    46    88    1
    94    46    89    1
    95    46    90    1
