@<TRIPOS>MOLECULE
IMPHY010081
 14 13 0 0 0
SMALL
GASTEIGER

@<TRIPOS>ATOM
      1 O           2.5369    0.7500    0.0000 O.3     1  UNL1       -0.4806
      2 O           3.4030   -0.7500    0.0000 O.2     1  UNL1       -0.2510
      3 C           5.1350    0.2500    0.0000 C.3     1  UNL1       -0.0458
      4 C           4.2690    0.7500    0.0000 C.3     1  UNL1        0.0445
      5 C           6.0010    0.7500    0.0000 C.3     1  UNL1       -0.0648
      6 C           3.4030    0.2500    0.0000 C.2     1  UNL1        0.3047
      7 H           4.7365   -0.2249    0.0000 H       1  UNL1        0.0268
      8 H           5.5335   -0.2249    0.0000 H       1  UNL1        0.0268
      9 H           4.6675    1.2250    0.0000 H       1  UNL1        0.0377
     10 H           3.8705    1.2250    0.0000 H       1  UNL1        0.0377
     11 H           6.3110    0.2131    0.0000 H       1  UNL1        0.0230
     12 H           6.5380    1.0600    0.0000 H       1  UNL1        0.0230
     13 H           5.6910    1.2869    0.0000 H       1  UNL1        0.0230
     14 H           2.0000    0.4400    0.0000 H       1  UNL1        0.2951
@<TRIPOS>BOND
     1     1     6    1
     2     1    14    1
     3     2     6    2
     4     3     4    1
     5     3     5    1
     6     3     7    1
     7     3     8    1
     8     4     6    1
     9     4     9    1
    10     4    10    1
    11     5    11    1
    12     5    12    1
    13     5    13    1
