@<TRIPOS>MOLECULE
IMPHY012739
 26 25 0 0 0
SMALL
GASTEIGER

@<TRIPOS>ATOM
      1 C           4.5981    0.1900    0.0000 C.3     1  UNL1       -0.0158
      2 C           6.3301    0.1900    0.0000 C.2     1  UNL1       -0.0793
      3 C           5.4641    0.6900    0.0000 C.2     1  UNL1       -0.0815
      4 C           3.7320    0.6900    0.0000 C.2     1  UNL1       -0.0774
      5 C           2.8660    0.1900    0.0000 C.2     1  UNL1       -0.0546
      6 C           7.1962    0.6900    0.0000 C.3     1  UNL1       -0.0440
      7 C           6.3301   -0.8100    0.0000 C.3     1  UNL1       -0.0440
      8 C           2.0000    0.6900    0.0000 C.3     1  UNL1       -0.0400
      9 C           2.8660   -0.8100    0.0000 C.2     1  UNL1       -0.0662
     10 C           2.0000   -1.3100    0.0000 C.2     1  UNL1       -0.0985
     11 H           4.1996   -0.2849    0.0000 H       1  UNL1        0.0350
     12 H           4.9966   -0.2849    0.0000 H       1  UNL1        0.0350
     13 H           5.4641    1.3100    0.0000 H       1  UNL1        0.0575
     14 H           3.7320    1.3100    0.0000 H       1  UNL1        0.0578
     15 H           7.5062    0.1531    0.0000 H       1  UNL1        0.0274
     16 H           7.7331    1.0000    0.0000 H       1  UNL1        0.0274
     17 H           6.8862    1.2269    0.0000 H       1  UNL1        0.0274
     18 H           5.7101   -0.8100    0.0000 H       1  UNL1        0.0274
     19 H           6.3301   -1.4300    0.0000 H       1  UNL1        0.0274
     20 H           6.9501   -0.8100    0.0000 H       1  UNL1        0.0274
     21 H           2.3100    1.2269    0.0000 H       1  UNL1        0.0277
     22 H           1.4631    1.0000    0.0000 H       1  UNL1        0.0277
     23 H           1.6900    0.1531    0.0000 H       1  UNL1        0.0277
     24 H           3.4030   -1.1200    0.0000 H       1  UNL1        0.0614
     25 H           1.4631   -1.0000    0.0000 H       1  UNL1        0.0535
     26 H           2.0000   -1.9300    0.0000 H       1  UNL1        0.0535
@<TRIPOS>BOND
     1     1     3    1
     2     1     4    1
     3     1    11    1
     4     1    12    1
     5     2     3    2
     6     2     6    1
     7     2     7    1
     8     3    13    1
     9     4     5    2
    10     4    14    1
    11     5     8    1
    12     5     9    1
    13     6    15    1
    14     6    16    1
    15     6    17    1
    16     7    18    1
    17     7    19    1
    18     7    20    1
    19     8    21    1
    20     8    22    1
    21     8    23    1
    22     9    10    2
    23     9    24    1
    24    10    25    1
    25    10    26    1
