@<TRIPOS>MOLECULE
IMPHY013816
 52 51 0 0 0
SMALL
GASTEIGER

@<TRIPOS>ATOM
      1 O           2.5369    0.7500    0.0000 O.3     1  UNL1       -0.4806
      2 O           3.4030   -0.7500    0.0000 O.2     1  UNL1       -0.2510
      3 C          14.6613   -0.2500    0.0000 C.3     1  UNL1       -0.0530
      4 C          15.5273   -0.7500    0.0000 C.3     1  UNL1       -0.0531
      5 C          13.7953   -0.7500    0.0000 C.3     1  UNL1       -0.0522
      6 C           6.8671    0.2500    0.0000 C.3     1  UNL1       -0.0530
      7 C           7.7331    0.7500    0.0000 C.3     1  UNL1       -0.0522
      8 C           6.0010    0.7500    0.0000 C.3     1  UNL1       -0.0526
      9 C          16.3933   -0.2500    0.0000 C.3     1  UNL1       -0.0533
     10 C          12.9292   -0.2500    0.0000 C.3     1  UNL1       -0.0422
     11 C           8.5991    0.2500    0.0000 C.3     1  UNL1       -0.0422
     12 C           5.1350    0.2500    0.0000 C.3     1  UNL1       -0.0430
     13 C          17.2594   -0.7500    0.0000 C.3     1  UNL1       -0.0559
     14 C          12.0632   -0.7500    0.0000 C.3     1  UNL1        0.0091
     15 C           9.4651    0.7500    0.0000 C.3     1  UNL1        0.0091
     16 C           4.2690    0.7500    0.0000 C.3     1  UNL1        0.0448
     17 C          18.1254   -0.2500    0.0000 C.3     1  UNL1       -0.0653
     18 C          11.1972   -0.2500    0.0000 C.1     1  UNL1       -0.1022
     19 C          10.3312    0.2500    0.0000 C.1     1  UNL1       -0.1022
     20 C           3.4030    0.2500    0.0000 C.2     1  UNL1        0.3047
     21 H          15.0598    0.2249    0.0000 H       1  UNL1        0.0265
     22 H          14.2628    0.2249    0.0000 H       1  UNL1        0.0265
     23 H          15.1288   -1.2250    0.0000 H       1  UNL1        0.0265
     24 H          15.9258   -1.2250    0.0000 H       1  UNL1        0.0265
     25 H          13.3967   -1.2250    0.0000 H       1  UNL1        0.0266
     26 H          14.1938   -1.2250    0.0000 H       1  UNL1        0.0266
     27 H           6.4685   -0.2249    0.0000 H       1  UNL1        0.0265
     28 H           7.2656   -0.2249    0.0000 H       1  UNL1        0.0265
     29 H           8.1316    1.2250    0.0000 H       1  UNL1        0.0266
     30 H           7.3346    1.2250    0.0000 H       1  UNL1        0.0266
     31 H           6.3996    1.2250    0.0000 H       1  UNL1        0.0265
     32 H           5.6025    1.2250    0.0000 H       1  UNL1        0.0265
     33 H          16.7919    0.2249    0.0000 H       1  UNL1        0.0265
     34 H          15.9948    0.2249    0.0000 H       1  UNL1        0.0265
     35 H          13.3278    0.2249    0.0000 H       1  UNL1        0.0274
     36 H          12.5307    0.2249    0.0000 H       1  UNL1        0.0274
     37 H           8.2006   -0.2249    0.0000 H       1  UNL1        0.0274
     38 H           8.9976   -0.2249    0.0000 H       1  UNL1        0.0274
     39 H           4.7365   -0.2249    0.0000 H       1  UNL1        0.0270
     40 H           5.5335   -0.2249    0.0000 H       1  UNL1        0.0270
     41 H          16.8608   -1.2250    0.0000 H       1  UNL1        0.0263
     42 H          17.6579   -1.2250    0.0000 H       1  UNL1        0.0263
     43 H          11.6647   -1.2250    0.0000 H       1  UNL1        0.0397
     44 H          12.4617   -1.2250    0.0000 H       1  UNL1        0.0397
     45 H           9.8637    1.2250    0.0000 H       1  UNL1        0.0397
     46 H           9.0666    1.2250    0.0000 H       1  UNL1        0.0397
     47 H           4.6675    1.2250    0.0000 H       1  UNL1        0.0377
     48 H           3.8705    1.2250    0.0000 H       1  UNL1        0.0377
     49 H          18.4354   -0.7869    0.0000 H       1  UNL1        0.0230
     50 H          18.6623    0.0600    0.0000 H       1  UNL1        0.0230
     51 H          17.8154    0.2869    0.0000 H       1  UNL1        0.0230
     52 H           2.0000    0.4400    0.0000 H       1  UNL1        0.2951
@<TRIPOS>BOND
     1     1    20    1
     2     1    52    1
     3     2    20    2
     4     3     4    1
     5     3     5    1
     6     3    21    1
     7     3    22    1
     8     4     9    1
     9     4    23    1
    10     4    24    1
    11     5    10    1
    12     5    25    1
    13     5    26    1
    14     6     7    1
    15     6     8    1
    16     6    27    1
    17     6    28    1
    18     7    11    1
    19     7    29    1
    20     7    30    1
    21     8    12    1
    22     8    31    1
    23     8    32    1
    24     9    13    1
    25     9    33    1
    26     9    34    1
    27    10    14    1
    28    10    35    1
    29    10    36    1
    30    11    15    1
    31    11    37    1
    32    11    38    1
    33    12    16    1
    34    12    39    1
    35    12    40    1
    36    13    17    1
    37    13    41    1
    38    13    42    1
    39    14    18    1
    40    14    43    1
    41    14    44    1
    42    15    19    1
    43    15    45    1
    44    15    46    1
    45    16    20    1
    46    16    47    1
    47    16    48    1
    48    17    49    1
    49    17    50    1
    50    17    51    1
    51    18    19    3
