@<TRIPOS>MOLECULE
IMPHY012303
 40 41 0 0 0
SMALL
GASTEIGER

@<TRIPOS>ATOM
      1 O           2.3127   -0.0131    0.0000 O.3     1  UNL1       -0.3878
      2 C           5.5008    0.5028    0.0000 C.3     1  UNL1       -0.0279
      3 C           5.5058   -0.4972    0.0000 C.3     1  UNL1       -0.0130
      4 C           4.7158    1.1224    0.0000 C.3     1  UNL1       -0.0376
      5 C           6.4455    0.8122    0.0000 C.3     1  UNL1       -0.0279
      6 C           6.4535   -0.7972    0.0000 C.3     1  UNL1       -0.0247
      7 C           7.0331    0.0104    0.0000 C.2     1  UNL1       -0.0700
      8 C           3.7420    0.8950    0.0000 C.3     1  UNL1       -0.0204
      9 C           4.7271   -1.1246    0.0000 C.2     1  UNL1       -0.0705
     10 C           3.3127   -0.0081    0.0000 C.3     1  UNL1        0.0739
     11 C           4.9335    2.0984    0.0000 C.3     1  UNL1       -0.0620
     12 C           3.7510   -0.9069    0.0000 C.2     1  UNL1       -0.0566
     13 C           8.0331    0.0154    0.0000 C.2     1  UNL1       -0.0764
     14 C           4.9544   -2.0984    0.0000 C.3     1  UNL1       -0.0434
     15 C           8.5374   -0.8481    0.0000 C.3     1  UNL1       -0.0438
     16 C           8.5288    0.8839    0.0000 C.3     1  UNL1       -0.0438
     17 H           5.6092    1.1132    0.0000 H       1  UNL1        0.0312
     18 H           5.6203   -1.1065    0.0000 H       1  UNL1        0.0351
     19 H           4.2753    1.5586    0.0000 H       1  UNL1        0.0302
     20 H           6.9813    1.1241    0.0000 H       1  UNL1        0.0313
     21 H           6.1916    1.3779    0.0000 H       1  UNL1        0.0313
     22 H           6.2053   -1.3654    0.0000 H       1  UNL1        0.0316
     23 H           6.9924   -1.1038    0.0000 H       1  UNL1        0.0316
     24 H           3.7390    1.5150    0.0000 H       1  UNL1        0.0296
     25 H           3.1369    1.0299    0.0000 H       1  UNL1        0.0296
     26 H           2.9802    0.5152    0.0000 H       1  UNL1        0.0638
     27 H           5.5386    1.9634    0.0000 H       1  UNL1        0.0233
     28 H           5.0685    2.7035    0.0000 H       1  UNL1        0.0233
     29 H           4.3284    2.2333    0.0000 H       1  UNL1        0.0233
     30 H           3.3669   -1.3936    0.0000 H       1  UNL1        0.0597
     31 H           4.3507   -2.2394    0.0000 H       1  UNL1        0.0274
     32 H           5.0954   -2.7022    0.0000 H       1  UNL1        0.0274
     33 H           5.5582   -1.9574    0.0000 H       1  UNL1        0.0274
     34 H           8.0020   -1.1608    0.0000 H       1  UNL1        0.0274
     35 H           8.8501   -1.3835    0.0000 H       1  UNL1        0.0274
     36 H           9.0728   -0.5354    0.0000 H       1  UNL1        0.0274
     37 H           9.0672    0.5766    0.0000 H       1  UNL1        0.0274
     38 H           8.8361    1.4224    0.0000 H       1  UNL1        0.0274
     39 H           7.9903    1.1912    0.0000 H       1  UNL1        0.0274
     40 H           2.0000    0.5223    0.0000 H       1  UNL1        0.2102
@<TRIPOS>BOND
     1     1    10    1
     2     1    40    1
     3     2     3    1
     4     2     4    1
     5     2     5    1
     6     2    17    1
     7     3     6    1
     8     3     9    1
     9     3    18    1
    10     4     8    1
    11     4    11    1
    12     4    19    1
    13     5     7    1
    14     5    20    1
    15     5    21    1
    16     6     7    1
    17     6    22    1
    18     6    23    1
    19     7    13    2
    20     8    10    1
    21     8    24    1
    22     8    25    1
    23     9    12    2
    24     9    14    1
    25    10    12    1
    26    10    26    1
    27    11    27    1
    28    11    28    1
    29    11    29    1
    30    12    30    1
    31    13    15    1
    32    13    16    1
    33    14    31    1
    34    14    32    1
    35    14    33    1
    36    15    34    1
    37    15    35    1
    38    15    36    1
    39    16    37    1
    40    16    38    1
    41    16    39    1
