@<TRIPOS>MOLECULE
IMPHY013806
 26 27 0 0 0
SMALL
GASTEIGER

@<TRIPOS>ATOM
      1 O           8.1424    0.3047    0.0000 O.3     1  UNL1       -0.4526
      2 O           8.1424   -1.3047    0.0000 O.3     1  UNL1       -0.4526
      3 O           2.8660    1.5000    0.0000 O.2     1  UNL1       -0.2977
      4 C           4.5981    0.5000    0.0000 C.3     1  UNL1       -0.0209
      5 C           5.4641    0.0000    0.0000 C.ar    1  UNL1       -0.0433
      6 C           3.7320   -0.0000    0.0000 C.3     1  UNL1        0.0095
      7 C           7.1962    0.0000    0.0000 C.ar    1  UNL1        0.1665
      8 C           6.3301    0.5000    0.0000 C.ar    1  UNL1       -0.0130
      9 C           7.1962   -1.0000    0.0000 C.ar    1  UNL1        0.1662
     10 C           5.4641   -1.0000    0.0000 C.ar    1  UNL1       -0.0549
     11 C           6.3301   -1.5000    0.0000 C.ar    1  UNL1       -0.0159
     12 C           8.7260   -0.5000    0.0000 C.3     1  UNL1        0.2332
     13 C           2.8660    0.5000    0.0000 C.2     1  UNL1        0.1306
     14 C           2.0000   -0.0000    0.0000 C.3     1  UNL1       -0.0061
     15 H           4.9966    0.9749    0.0000 H       1  UNL1        0.0317
     16 H           4.1996    0.9749    0.0000 H       1  UNL1        0.0317
     17 H           3.3335   -0.4749    0.0000 H       1  UNL1        0.0345
     18 H           4.1306   -0.4749    0.0000 H       1  UNL1        0.0345
     19 H           6.3301    1.1200    0.0000 H       1  UNL1        0.0658
     20 H           4.9272   -1.3100    0.0000 H       1  UNL1        0.0621
     21 H           6.3301   -2.1200    0.0000 H       1  UNL1        0.0655
     22 H           9.1868   -0.9147    0.0000 H       1  UNL1        0.1166
     23 H           9.1868   -0.0853    0.0000 H       1  UNL1        0.1166
     24 H           1.6900    0.5369    0.0000 H       1  UNL1        0.0306
     25 H           1.4631   -0.3100    0.0000 H       1  UNL1        0.0306
     26 H           2.3100   -0.5369    0.0000 H       1  UNL1        0.0306
@<TRIPOS>BOND
     1     1     7    1
     2     1    12    1
     3     2     9    1
     4     2    12    1
     5     3    13    2
     6     4     5    1
     7     4     6    1
     8     4    15    1
     9     4    16    1
    10     5     8   ar
    11     5    10   ar
    12     6    13    1
    13     6    17    1
    14     6    18    1
    15     7     8   ar
    16     7     9   ar
    17     8    19    1
    18     9    11   ar
    19    10    11   ar
    20    10    20    1
    21    11    21    1
    22    12    22    1
    23    12    23    1
    24    13    14    1
    25    14    24    1
    26    14    25    1
    27    14    26    1
