@<TRIPOS>MOLECULE
IMPHY013466
 72 77 0 0 0
SMALL
GASTEIGER

@<TRIPOS>ATOM
      1 O           2.0000    3.4448    0.0000 O.3     1  UNL1       -0.3649
      2 O           2.8665    4.9448    0.0000 O.3     1  UNL1       -0.3846
      3 O           6.3688    3.9417    0.0000 O.2     1  UNL1       -0.2920
      4 O           3.7529   -2.0312    0.0000 O.3     1  UNL1       -0.4574
      5 O           2.4548   -3.1780    0.0000 O.2     1  UNL1       -0.2452
      6 O           4.4411   -5.4263    0.0000 O.3     1  UNL1       -0.3902
      7 C           3.7326    2.4448    0.0000 C.3     1  UNL1       -0.0050
      8 C           3.7165    1.4033    0.0000 C.3     1  UNL1       -0.0298
      9 C           4.5986    2.9448    0.0000 C.3     1  UNL1       -0.0203
     10 C           4.6145    0.8756    0.0000 C.3     1  UNL1       -0.0257
     11 C           2.8665    2.9448    0.0000 C.3     1  UNL1        0.0914
     12 C           2.8665    3.9448    0.0000 C.3     1  UNL1        0.1153
     13 C           4.5986    3.9448    0.0000 C.3     1  UNL1        0.0647
     14 C           3.7326    4.4448    0.0000 C.3     1  UNL1        0.1104
     15 C           4.3888   -0.1350    0.0000 C.3     1  UNL1       -0.0294
     16 C           5.5086    2.4380    0.0000 C.3     1  UNL1       -0.0484
     17 C           5.5166    1.3964    0.0000 C.3     1  UNL1       -0.0468
     18 C           2.9435    0.7144    0.0000 C.3     1  UNL1       -0.0491
     19 C           3.3582   -0.2344    0.0000 C.3     1  UNL1       -0.0491
     20 C           5.4767    0.3689    0.0000 C.3     1  UNL1       -0.0590
     21 C           3.7165    5.4863    0.0000 C.3     1  UNL1       -0.0019
     22 C           5.0509   -0.8844    0.0000 C.3     1  UNL1       -0.0030
     23 C           5.4646    3.4448    0.0000 C.3     1  UNL1       -0.0495
     24 C           5.5086    4.4517    0.0000 C.2     1  UNL1        0.1647
     25 C           4.6145    6.0141    0.0000 C.2     1  UNL1       -0.0779
     26 C           4.7329   -1.8325    0.0000 C.3     1  UNL1        0.1099
     27 C           5.5166    5.4933    0.0000 C.2     1  UNL1       -0.0224
     28 C           6.0310   -0.6858    0.0000 C.3     1  UNL1       -0.0588
     29 C           5.3950   -2.5820    0.0000 C.3     1  UNL1        0.0064
     30 C           5.0770   -3.5301    0.0000 C.2     1  UNL1       -0.0570
     31 C           3.4349   -2.9793    0.0000 C.2     1  UNL1        0.3376
     32 C           4.0970   -3.7287    0.0000 C.2     1  UNL1        0.0608
     33 C           5.7391   -4.2795    0.0000 C.3     1  UNL1       -0.0428
     34 C           3.7790   -4.6768    0.0000 C.3     1  UNL1        0.0759
     35 H           2.9932    2.0255    0.0000 H       1  UNL1        0.0332
     36 H           2.9436    1.7570    0.0000 H       1  UNL1        0.0310
     37 H           5.3314    3.3755    0.0000 H       1  UNL1        0.0315
     38 H           2.5566    2.4078    0.0000 H       1  UNL1        0.0626
     39 H           2.5566    4.4818    0.0000 H       1  UNL1        0.0651
     40 H           4.0771   -0.9258    0.0000 H       1  UNL1        0.0310
     41 H           6.1202    2.3366    0.0000 H       1  UNL1        0.0268
     42 H           5.7131    3.0232    0.0000 H       1  UNL1        0.0268
     43 H           5.7302    0.8143    0.0000 H       1  UNL1        0.0271
     44 H           6.1266    1.5072    0.0000 H       1  UNL1        0.0271
     45 H           2.5819    1.2180    0.0000 H       1  UNL1        0.0268
     46 H           2.4046    0.4078    0.0000 H       1  UNL1        0.0268
     47 H           2.7671   -0.4216    0.0000 H       1  UNL1        0.0268
     48 H           3.4822   -0.8419    0.0000 H       1  UNL1        0.0268
     49 H           5.1626   -0.1656    0.0000 H       1  UNL1        0.0235
     50 H           6.0112    0.0548    0.0000 H       1  UNL1        0.0235
     51 H           5.7908    0.9034    0.0000 H       1  UNL1        0.0235
     52 H           3.4985    6.0667    0.0000 H       1  UNL1        0.0336
     53 H           3.1074    5.3708    0.0000 H       1  UNL1        0.0336
     54 H           5.2481   -0.2966    0.0000 H       1  UNL1        0.0337
     55 H           5.1546    2.9079    0.0000 H       1  UNL1        0.0240
     56 H           6.0016    3.1348    0.0000 H       1  UNL1        0.0240
     57 H           5.7746    3.9818    0.0000 H       1  UNL1        0.0240
     58 H           2.8665    5.5648    0.0000 H       1  UNL1        0.2103
     59 H           4.6122    6.6341    0.0000 H       1  UNL1        0.0574
     60 H           4.1702   -1.1955    0.0000 H       1  UNL1        0.0740
     61 H           6.0548    5.8012    0.0000 H       1  UNL1        0.0649
     62 H           6.1542   -1.2934    0.0000 H       1  UNL1        0.0234
     63 H           6.6386   -0.5626    0.0000 H       1  UNL1        0.0234
     64 H           5.9078   -0.0781    0.0000 H       1  UNL1        0.0234
     65 H           5.9397   -2.8782    0.0000 H       1  UNL1        0.0346
     66 H           5.7813   -2.0970    0.0000 H       1  UNL1        0.0346
     67 H           5.2745   -4.6900    0.0000 H       1  UNL1        0.0275
     68 H           6.1496   -4.7441    0.0000 H       1  UNL1        0.0275
     69 H           6.2038   -3.8690    0.0000 H       1  UNL1        0.0275
     70 H           3.2343   -4.3806    0.0000 H       1  UNL1        0.0609
     71 H           3.3927   -5.1618    0.0000 H       1  UNL1        0.0609
     72 H           4.2439   -6.0141    0.0000 H       1  UNL1        0.2099
@<TRIPOS>BOND
     1    11     1    1
     2    12     1    1
     3    14     2    1
     4     2    58    1
     5     3    24    2
     6     4    26    1
     7     4    31    1
     8     5    31    2
     9     6    34    1
    10     6    72    1
    11     7     8    1
    12     7     9    1
    13     7    11    1
    14     7    35    1
    15     8    10    1
    16     8    18    1
    17     8    36    1
    18     9    13    1
    19     9    16    1
    20     9    37    1
    21    10    15    1
    22    10    17    1
    23    10    20    1
    24    11    12    1
    25    11    38    1
    26    12    14    1
    27    12    39    1
    28    13    14    1
    29    13    23    1
    30    13    24    1
    31    14    21    1
    32    15    19    1
    33    15    22    1
    34    15    40    1
    35    16    17    1
    36    16    41    1
    37    16    42    1
    38    17    43    1
    39    17    44    1
    40    18    19    1
    41    18    45    1
    42    18    46    1
    43    19    47    1
    44    19    48    1
    45    20    49    1
    46    20    50    1
    47    20    51    1
    48    21    25    1
    49    21    52    1
    50    21    53    1
    51    22    26    1
    52    22    28    1
    53    22    54    1
    54    23    55    1
    55    23    56    1
    56    23    57    1
    57    24    27    1
    58    25    27    2
    59    25    59    1
    60    26    29    1
    61    26    60    1
    62    27    61    1
    63    28    62    1
    64    28    63    1
    65    28    64    1
    66    29    30    1
    67    29    65    1
    68    29    66    1
    69    30    32    2
    70    30    33    1
    71    31    32    1
    72    32    34    1
    73    33    67    1
    74    33    68    1
    75    33    69    1
    76    34    70    1
    77    34    71    1
