@<TRIPOS>MOLECULE
IMPHY002369
 20 23 0 0 0
SMALL
GASTEIGER

@<TRIPOS>ATOM
      1 O        2640.2600 2470.7400    0.0000 O.3     1  UNL1       -0.2833
      2 C        2600.0600 2494.0100    0.0000 C.ar    1  UNL1        0.2289
      3 C        2559.9700 2470.6200    0.0000 C.ar    1  UNL1        0.1728
      4 C        2519.9900 2494.0100    0.0000 C.ar    1  UNL1        0.0151
      5 C        2479.9000 2470.6200    0.0000 C.3     1  UNL1        0.0599
      6 C        2479.9000 2423.9600    0.0000 C.3     1  UNL1        0.1722
      7 O        2559.9700 2423.9600    0.0000 O.3     1  UNL1       -0.4759
      8 C        2439.9200 2400.5800    0.0000 C.3     1  UNL1        0.0767
      9 C        2399.9400 2423.9600    0.0000 C.3     1  UNL1        0.1556
     10 C        2399.9400 2470.6200    0.0000 C.3     1  UNL1        0.0335
     11 C        2439.9200 2494.0100    0.0000 C.3     1  UNL1        0.0103
     12 O        2359.7400 2400.6900    0.0000 O.3     1  UNL1       -0.2230
     13 C        2439.9200 2515.6700    0.0000 C.3     1  UNL1        0.0250
     14 C        2439.9200 2540.6700    0.0000 C.3     1  UNL1        0.0729
     15 N        2456.6200 2583.9900    0.0000 N.3     1  UNL1       -0.2677
     16 C        2503.2800 2583.9900    0.0000 C.3     1  UNL1        0.0990
     17 C        2519.9900 2540.6700    0.0000 C.ar    1  UNL1       -0.0069
     18 C        2559.9700 2564.0600    0.0000 C.ar    1  UNL1        0.0003
     19 C        2600.0600 2540.6700    0.0000 C.ar    1  UNL1        0.0449
     20 C        2430.5900 2622.4700    0.0000 C.3     1  UNL1        0.0899
@<TRIPOS>BOND
     1     1     2    1
     2     2     3   ar
     3     2    19   ar
     4     3     4   ar
     5     3     7    1
     6     4    17   ar
     7     5     4    1
     8     5     6    1
     9     5    11    1
    10     5    13    1
    11     6     8    1
    12     7     6    1
    13     8     9    1
    14     9    12    1
    15    10     9    1
    16    11    10    1
    17    13    14    1
    18    14    15    1
    19    15    20    1
    20    16    15    1
    21    17    16    1
    22    18    17   ar
    23    19    18   ar
