@<TRIPOS>MOLECULE
IMPHY009200
 42 43 0 0 0
SMALL
GASTEIGER

@<TRIPOS>ATOM
      1 O           2.5369    1.2327    0.0000 O.3     1  UNL1       -0.3885
      2 C           6.0010   -0.7673    0.0000 C.3     1  UNL1       -0.0108
      3 C           6.0010    0.2327    0.0000 C.2     1  UNL1       -0.0644
      4 C           5.1350   -1.2673    0.0000 C.3     1  UNL1       -0.0433
      5 C           6.8950   -1.3020    0.0000 C.3     1  UNL1       -0.0439
      6 C           4.2690    0.2327    0.0000 C.3     1  UNL1        0.0057
      7 C           6.8950    0.7674    0.0000 C.3     1  UNL1       -0.0222
      8 C           4.2690   -0.7673    0.0000 C.3     1  UNL1       -0.0434
      9 C           7.8010   -0.7881    0.0000 C.3     1  UNL1       -0.0517
     10 C           7.8010    0.2535    0.0000 C.3     1  UNL1       -0.0467
     11 C           5.1350    0.7327    0.0000 C.2     1  UNL1       -0.0782
     12 C           6.0010   -1.7673    0.0000 C.3     1  UNL1       -0.0558
     13 C           3.4030    0.7327    0.0000 C.3     1  UNL1        0.0667
     14 C           6.8834    1.7673    0.0000 C.3     1  UNL1       -0.0587
     15 C           2.9030   -0.1333    0.0000 C.3     1  UNL1       -0.0358
     16 C           3.9030    1.5987    0.0000 C.3     1  UNL1       -0.0358
     17 H           4.7365   -1.7422    0.0000 H       1  UNL1        0.0274
     18 H           5.5335   -1.7422    0.0000 H       1  UNL1        0.0274
     19 H           6.4904   -1.7718    0.0000 H       1  UNL1        0.0274
     20 H           7.2886   -1.7810    0.0000 H       1  UNL1        0.0274
     21 H           3.5329   -0.1923    0.0000 H       1  UNL1        0.0371
     22 H           7.6270    1.1994    0.0000 H       1  UNL1        0.0343
     23 H           3.6584   -0.6596    0.0000 H       1  UNL1        0.0272
     24 H           4.0569   -1.3499    0.0000 H       1  UNL1        0.0272
     25 H           8.0101   -1.3718    0.0000 H       1  UNL1        0.0266
     26 H           8.4119   -0.6820    0.0000 H       1  UNL1        0.0266
     27 H           8.4119    0.1474    0.0000 H       1  UNL1        0.0271
     28 H           8.0101    0.8372    0.0000 H       1  UNL1        0.0271
     29 H           5.1350    1.3527    0.0000 H       1  UNL1        0.0576
     30 H           5.3810   -1.7673    0.0000 H       1  UNL1        0.0238
     31 H           6.0010   -2.3873    0.0000 H       1  UNL1        0.0238
     32 H           6.6210   -1.7673    0.0000 H       1  UNL1        0.0238
     33 H           7.5034    1.7745    0.0000 H       1  UNL1        0.0235
     34 H           6.8762    2.3873    0.0000 H       1  UNL1        0.0235
     35 H           6.2635    1.7601    0.0000 H       1  UNL1        0.0235
     36 H           2.3660    0.1767    0.0000 H       1  UNL1        0.0257
     37 H           2.5930   -0.6703    0.0000 H       1  UNL1        0.0257
     38 H           3.4399   -0.4433    0.0000 H       1  UNL1        0.0257
     39 H           4.4399    1.2887    0.0000 H       1  UNL1        0.0257
     40 H           4.2130    2.1357    0.0000 H       1  UNL1        0.0257
     41 H           3.3660    1.9087    0.0000 H       1  UNL1        0.0257
     42 H           2.0000    0.9227    0.0000 H       1  UNL1        0.2102
@<TRIPOS>BOND
     1     1    13    1
     2     1    42    1
     3     2     3    1
     4     2     4    1
     5     2     5    1
     6     2    12    1
     7     3     7    1
     8     3    11    2
     9     4     8    1
    10     4    17    1
    11     4    18    1
    12     5     9    1
    13     5    19    1
    14     5    20    1
    15     6     8    1
    16     6    11    1
    17     6    13    1
    18     6    21    1
    19     7    10    1
    20     7    14    1
    21     7    22    1
    22     8    23    1
    23     8    24    1
    24     9    10    1
    25     9    25    1
    26     9    26    1
    27    10    27    1
    28    10    28    1
    29    11    29    1
    30    12    30    1
    31    12    31    1
    32    12    32    1
    33    13    15    1
    34    13    16    1
    35    14    33    1
    36    14    34    1
    37    14    35    1
    38    15    36    1
    39    15    37    1
    40    15    38    1
    41    16    39    1
    42    16    40    1
    43    16    41    1
