@<TRIPOS>MOLECULE
IMPHY009323
 28 30 0 0 0
SMALL
GASTEIGER

@<TRIPOS>ATOM
      1 O           3.6613    1.9118    0.0000 O.2     1  UNL1       -0.2760
      2 N           4.5274    0.4118    0.0000 N.ar    1  UNL1       -0.2810
      3 N           7.0547   -0.7124    0.0000 N.2     1  UNL1       -0.2861
      4 C           5.0274   -1.1271    0.0000 C.ar    1  UNL1       -0.0109
      5 C           5.3364   -0.1760    0.0000 C.ar    1  UNL1        0.0738
      6 C           5.7123   -1.9118    0.0000 C.3     1  UNL1       -0.0054
      7 C           4.0274   -1.1271    0.0000 C.ar    1  UNL1        0.0042
      8 C           3.7183   -0.1760    0.0000 C.ar    1  UNL1        0.0570
      9 C           6.7328   -1.7031    0.0000 C.3     1  UNL1        0.0441
     10 C           6.3518    0.0563    0.0000 C.2     1  UNL1        0.0569
     11 C           3.3424   -1.9118    0.0000 C.ar    1  UNL1       -0.0523
     12 C           2.7029    0.0563    0.0000 C.ar    1  UNL1       -0.0372
     13 C           6.6498    1.0108    0.0000 C.3     1  UNL1       -0.0208
     14 C           4.5274    1.4118    0.0000 C.2     1  UNL1        0.2194
     15 C           2.3219   -1.7031    0.0000 C.ar    1  UNL1       -0.0611
     16 C           2.0000   -0.7124    0.0000 C.ar    1  UNL1       -0.0598
     17 H           5.1824   -2.2336    0.0000 H       1  UNL1        0.0332
     18 H           5.9387   -2.4890    0.0000 H       1  UNL1        0.0332
     19 H           6.7513   -2.3228    0.0000 H       1  UNL1        0.0511
     20 H           7.3466   -1.7910    0.0000 H       1  UNL1        0.0511
     21 H           3.5408   -2.4992    0.0000 H       1  UNL1        0.0624
     22 H           2.5182    0.6481    0.0000 H       1  UNL1        0.0638
     23 H           7.2416    0.8261    0.0000 H       1  UNL1        0.0293
     24 H           6.8345    1.6026    0.0000 H       1  UNL1        0.0293
     25 H           6.0580    1.1956    0.0000 H       1  UNL1        0.0293
     26 H           5.0643    1.7218    0.0000 H       1  UNL1        0.1287
     27 H           1.9088   -2.1654    0.0000 H       1  UNL1        0.0618
     28 H           1.3940   -0.5812    0.0000 H       1  UNL1        0.0618
@<TRIPOS>BOND
     1     1    14    2
     2     2     5   ar
     3     2     8   ar
     4     2    14   am
     5     3     9    1
     6     3    10    2
     7     4     5   ar
     8     4     6    1
     9     4     7   ar
    10     5    10    1
    11     6     9    1
    12     6    17    1
    13     6    18    1
    14     7     8   ar
    15     7    11   ar
    16     8    12   ar
    17     9    19    1
    18     9    20    1
    19    10    13    1
    20    11    15   ar
    21    11    21    1
    22    12    16   ar
    23    12    22    1
    24    13    23    1
    25    13    24    1
    26    13    25    1
    27    14    26    1
    28    15    16   ar
    29    15    27    1
    30    16    28    1
