@<TRIPOS>MOLECULE
IMPHY005381
 31 31 0 0 0
SMALL
GASTEIGER

@<TRIPOS>ATOM
      1 O           2.8660   -2.0000    0.0000 O.3     1  UNL1       -0.3798
      2 C           2.8660    1.0000    0.0000 C.3     1  UNL1       -0.0385
      3 C           2.0000    0.5000    0.0000 C.3     1  UNL1       -0.0476
      4 C           3.7320    0.5000    0.0000 C.3     1  UNL1       -0.0476
      5 C           2.0000   -0.5000    0.0000 C.3     1  UNL1       -0.0264
      6 C           3.7320   -0.5000    0.0000 C.3     1  UNL1       -0.0264
      7 C           2.8660    2.0000    0.0000 C.3     1  UNL1       -0.0439
      8 C           2.8660   -1.0000    0.0000 C.3     1  UNL1        0.0584
      9 C           3.7320    2.5000    0.0000 C.3     1  UNL1       -0.0624
     10 C           2.0000    2.5000    0.0000 C.3     1  UNL1       -0.0624
     11 C           2.0000   -2.5000    0.0000 C.3     1  UNL1        0.0368
     12 H           3.4030    1.3100    0.0000 H       1  UNL1        0.0303
     13 H           4.3426    0.3923    0.0000 H       1  UNL1        0.0269
     14 H           3.9441    1.0826    0.0000 H       1  UNL1        0.0269
     15 H           1.7880    1.0826    0.0000 H       1  UNL1        0.0269
     16 H           1.3894    0.3923    0.0000 H       1  UNL1        0.0269
     17 H           1.3894   -0.3923    0.0000 H       1  UNL1        0.0290
     18 H           1.7880   -1.0826    0.0000 H       1  UNL1        0.0290
     19 H           3.9441   -1.0826    0.0000 H       1  UNL1        0.0290
     20 H           4.3426   -0.3923    0.0000 H       1  UNL1        0.0290
     21 H           2.8660    2.6200    0.0000 H       1  UNL1        0.0298
     22 H           3.4030   -1.3100    0.0000 H       1  UNL1        0.0596
     23 H           4.0420    1.9631    0.0000 H       1  UNL1        0.0232
     24 H           4.2690    2.8100    0.0000 H       1  UNL1        0.0232
     25 H           3.4220    3.0369    0.0000 H       1  UNL1        0.0232
     26 H           2.3100    3.0369    0.0000 H       1  UNL1        0.0232
     27 H           1.4631    2.8100    0.0000 H       1  UNL1        0.0232
     28 H           1.6900    1.9631    0.0000 H       1  UNL1        0.0232
     29 H           1.6900   -1.9631    0.0000 H       1  UNL1        0.0524
     30 H           1.4631   -2.8100    0.0000 H       1  UNL1        0.0524
     31 H           2.3100   -3.0369    0.0000 H       1  UNL1        0.0524
@<TRIPOS>BOND
     1     1     8    1
     2     1    11    1
     3     2     3    1
     4     2     4    1
     5     2     7    1
     6     2    12    1
     7     3     5    1
     8     3    15    1
     9     3    16    1
    10     4     6    1
    11     4    13    1
    12     4    14    1
    13     5     8    1
    14     5    17    1
    15     5    18    1
    16     6     8    1
    17     6    19    1
    18     6    20    1
    19     7     9    1
    20     7    10    1
    21     7    21    1
    22     8    22    1
    23     9    23    1
    24     9    24    1
    25     9    25    1
    26    10    26    1
    27    10    27    1
    28    10    28    1
    29    11    29    1
    30    11    30    1
    31    11    31    1
