@<TRIPOS>MOLECULE
IMPHY012886
 50 54 0 0 0
SMALL
GASTEIGER

@<TRIPOS>ATOM
      1 O           9.1811    0.2586    0.0000 O.3     1  UNL1       -0.4856
      2 O           5.6451    2.3001    0.0000 O.2     1  UNL1       -0.4543
      3 O           5.6567   -0.7691    0.0000 O.2     1  UNL1       -0.2863
      4 O           3.8194   -0.8122    0.0000 O.3     1  UNL1       -0.5058
      5 O           2.0000    2.3113    0.0000 O.3     1  UNL1       -0.5065
      6 C           8.2870   -1.3038    0.0000 C.3     1  UNL1        0.0090
      7 C           7.3890   -0.7761    0.0000 C.3     1  UNL1        0.0131
      8 C           9.1891   -0.7830    0.0000 C.3     1  UNL1        0.1087
      9 C           8.2954   -2.3888    0.0000 C.3     1  UNL1       -0.0421
     10 C           7.4051    0.2654    0.0000 C.ar    1  UNL1        0.0158
     11 C           7.3558   -2.9313    0.0000 C.3     1  UNL1       -0.0316
     12 C           6.4371   -1.2967    0.0000 C.2     1  UNL1       -0.0771
     13 C           6.4204   -2.3816    0.0000 C.2     1  UNL1       -0.0759
     14 C           8.2711    0.7654    0.0000 C.ar    1  UNL1        0.1259
     15 C          10.1891   -0.7791    0.0000 C.3     1  UNL1       -0.0249
     16 C           9.6925   -1.6471    0.0000 C.3     1  UNL1       -0.0249
     17 C           6.5390    0.7654    0.0000 C.ar    1  UNL1        0.0719
     18 C           8.2711    1.7654    0.0000 C.ar    1  UNL1       -0.0161
     19 C           5.5486   -2.8715    0.0000 C.3     1  UNL1       -0.0438
     20 C           6.5390    1.7654    0.0000 C.ar    1  UNL1        0.1398
     21 C           7.4051    2.2654    0.0000 C.ar    1  UNL1       -0.0151
     22 C           5.6451    0.2308    0.0000 C.ar    1  UNL1        0.2041
     23 C           4.7390    0.7446    0.0000 C.ar    1  UNL1        0.1061
     24 C           4.7390    1.7863    0.0000 C.ar    1  UNL1        0.1463
     25 C           3.8079    0.1877    0.0000 C.ar    1  UNL1        0.1347
     26 C           3.8079    2.3432    0.0000 C.ar    1  UNL1        0.0231
     27 C           2.8641    0.7230    0.0000 C.ar    1  UNL1        0.0223
     28 C           2.8641    1.8079    0.0000 C.ar    1  UNL1        0.1239
     29 H           9.0248   -1.7260    0.0000 H       1  UNL1        0.0348
     30 H           6.6612   -0.3370    0.0000 H       1  UNL1        0.0397
     31 H           8.5090   -2.9708    0.0000 H       1  UNL1        0.0272
     32 H           8.9054   -2.2780    0.0000 H       1  UNL1        0.0272
     33 H           6.9548   -3.4042    0.0000 H       1  UNL1        0.0310
     34 H           7.7531   -3.4072    0.0000 H       1  UNL1        0.0310
     35 H           5.9062   -0.9764    0.0000 H       1  UNL1        0.0578
     36 H          10.1915   -1.3991    0.0000 H       1  UNL1        0.0268
     37 H          10.8091   -0.7768    0.0000 H       1  UNL1        0.0268
     38 H          10.1867   -0.1591    0.0000 H       1  UNL1        0.0268
     39 H           9.1567   -1.9592    0.0000 H       1  UNL1        0.0268
     40 H          10.0045   -2.1828    0.0000 H       1  UNL1        0.0268
     41 H          10.2282   -1.3350    0.0000 H       1  UNL1        0.0268
     42 H           8.8080    2.0754    0.0000 H       1  UNL1        0.0655
     43 H           5.2448   -2.3310    0.0000 H       1  UNL1        0.0274
     44 H           5.0081   -3.1753    0.0000 H       1  UNL1        0.0274
     45 H           5.8524   -3.4120    0.0000 H       1  UNL1        0.0274
     46 H           7.4051    2.8854    0.0000 H       1  UNL1        0.0656
     47 H           3.8150    2.9631    0.0000 H       1  UNL1        0.0691
     48 H           2.3284    0.4109    0.0000 H       1  UNL1        0.0691
     49 H           3.2861   -1.1284    0.0000 H       1  UNL1        0.2922
     50 H           2.0024    2.9313    0.0000 H       1  UNL1        0.2921
@<TRIPOS>BOND
     1     1     8    1
     2     1    14    1
     3     2    20   ar
     4     2    24   ar
     5     3    22    2
     6     4    25    1
     7     4    49    1
     8     5    28    1
     9     5    50    1
    10     6     7    1
    11     6     8    1
    12     6     9    1
    13     6    29    1
    14     7    10    1
    15     7    12    1
    16     7    30    1
    17     8    15    1
    18     8    16    1
    19     9    11    1
    20     9    31    1
    21     9    32    1
    22    10    14   ar
    23    10    17   ar
    24    11    13    1
    25    11    33    1
    26    11    34    1
    27    12    13    2
    28    12    35    1
    29    13    19    1
    30    14    18   ar
    31    15    36    1
    32    15    37    1
    33    15    38    1
    34    16    39    1
    35    16    40    1
    36    16    41    1
    37    17    20   ar
    38    17    22   ar
    39    18    21   ar
    40    18    42    1
    41    19    43    1
    42    19    44    1
    43    19    45    1
    44    20    21   ar
    45    21    46    1
    46    22    23   ar
    47    23    24   ar
    48    23    25   ar
    49    24    26   ar
    50    25    27   ar
    51    26    28   ar
    52    26    47    1
    53    27    28   ar
    54    27    48    1
