@<TRIPOS>MOLECULE
IMPHY006268
 53 55 0 0 0
SMALL
GASTEIGER

@<TRIPOS>ATOM
      1 O           2.3660    1.5865    0.0000 O.3     1  UNL1       -0.3535
      2 O           4.5981    0.7204    0.0000 O.3     1  UNL1       -0.4564
      3 O           7.9332   -1.4466    0.0000 O.3     1  UNL1       -0.4571
      4 O           4.5981   -1.2796    0.0000 O.3     1  UNL1       -0.3874
      5 O           3.7320   -0.7796    0.0000 O.2     1  UNL1       -0.2475
      6 O           8.0280   -3.2204    0.0000 O.2     1  UNL1       -0.2453
      7 O           7.1962    3.2204    0.0000 O.2     1  UNL1       -0.2927
      8 C           6.3301   -1.2796    0.0000 C.3     1  UNL1        0.0571
      9 C           2.8660    0.7204    0.0000 C.3     1  UNL1        0.1885
     10 C           5.4641    0.2204    0.0000 C.3     1  UNL1        0.1325
     11 C           5.4641   -0.7796    0.0000 C.3     1  UNL1        0.1027
     12 C           3.3660    1.5865    0.0000 C.3     1  UNL1        0.0965
     13 C           7.1962   -0.7796    0.0000 C.3     1  UNL1        0.1165
     14 C           6.3301    0.7204    0.0000 C.3     1  UNL1        0.0028
     15 C           3.7320    0.2204    0.0000 C.2     1  UNL1        0.3421
     16 C           6.5393   -2.2514    0.0000 C.2     1  UNL1        0.0387
     17 C           7.1962    0.2204    0.0000 C.3     1  UNL1        0.0064
     18 C           2.0000    0.2204    0.0000 C.3     1  UNL1       -0.0228
     19 C           6.3301    1.7204    0.0000 C.3     1  UNL1        0.0159
     20 C           4.2320    2.0865    0.0000 C.3     1  UNL1       -0.0354
     21 C           7.1962    1.2204    0.0000 C.3     1  UNL1       -0.0586
     22 C           7.5280   -2.3544    0.0000 C.2     1  UNL1        0.3354
     23 C           8.0622    0.7204    0.0000 C.2     1  UNL1       -0.0658
     24 C           7.1962    2.2204    0.0000 C.2     1  UNL1        0.1564
     25 C           8.0622    1.7204    0.0000 C.2     1  UNL1       -0.0201
     26 C           5.8715   -2.9957    0.0000 C.2     1  UNL1       -0.0882
     27 C           8.9282    0.2204    0.0000 C.3     1  UNL1       -0.0433
     28 H           5.6431   -1.7801    0.0000 H       1  UNL1        0.0414
     29 H           5.4641    0.8404    0.0000 H       1  UNL1        0.0763
     30 H           5.4641   -1.3996    0.0000 H       1  UNL1        0.0638
     31 H           3.2056    2.1854    0.0000 H       1  UNL1        0.0628
     32 H           7.9731   -0.4348    0.0000 H       1  UNL1        0.0744
     33 H           6.6401    0.1835    0.0000 H       1  UNL1        0.0339
     34 H           6.9841    0.8031    0.0000 H       1  UNL1        0.0346
     35 H           6.5856    0.1128    0.0000 H       1  UNL1        0.0346
     36 H           6.1181    2.3031    0.0000 H       1  UNL1        0.0349
     37 H           5.7196    1.6128    0.0000 H       1  UNL1        0.0349
     38 H           1.6900    0.7574    0.0000 H       1  UNL1        0.0264
     39 H           1.4631   -0.0896    0.0000 H       1  UNL1        0.0264
     40 H           2.3100   -0.3165    0.0000 H       1  UNL1        0.0264
     41 H           4.5420    1.5495    0.0000 H       1  UNL1        0.0256
     42 H           4.7690    2.3965    0.0000 H       1  UNL1        0.0256
     43 H           3.9220    2.6234    0.0000 H       1  UNL1        0.0256
     44 H           7.5062    0.6835    0.0000 H       1  UNL1        0.0234
     45 H           7.7331    1.5304    0.0000 H       1  UNL1        0.0234
     46 H           6.8862    1.7574    0.0000 H       1  UNL1        0.0234
     47 H           4.5981   -1.8996    0.0000 H       1  UNL1        0.2100
     48 H           8.5991    2.0304    0.0000 H       1  UNL1        0.0652
     49 H           5.2648   -2.8678    0.0000 H       1  UNL1        0.0540
     50 H           6.0641   -3.5850    0.0000 H       1  UNL1        0.0540
     51 H           8.6182   -0.3165    0.0000 H       1  UNL1        0.0274
     52 H           9.4651   -0.0896    0.0000 H       1  UNL1        0.0274
     53 H           9.2382    0.7574    0.0000 H       1  UNL1        0.0274
@<TRIPOS>BOND
     1     1     9    1
     2     1    12    1
     3    10     2    1
     4     2    15    1
     5     3    13    1
     6     3    22    1
     7    11     4    1
     8     4    47    1
     9     5    15    2
    10     6    22    2
    11     7    24    2
    12     8    11    1
    13     8    13    1
    14     8    16    1
    15     8    28    1
    16     9    12    1
    17     9    15    1
    18     9    18    1
    19    10    11    1
    20    10    14    1
    21    10    29    1
    22    11    30    1
    23    12    20    1
    24    12    31    1
    25    13    17    1
    26    13    32    1
    27    14    19    1
    28    14    21    1
    29    14    33    1
    30    16    22    1
    31    16    26    2
    32    17    23    1
    33    17    34    1
    34    17    35    1
    35    18    38    1
    36    18    39    1
    37    18    40    1
    38    19    24    1
    39    19    36    1
    40    19    37    1
    41    20    41    1
    42    20    42    1
    43    20    43    1
    44    21    44    1
    45    21    45    1
    46    21    46    1
    47    23    25    2
    48    23    27    1
    49    24    25    1
    50    25    48    1
    51    26    49    1
    52    26    50    1
    53    27    51    1
    54    27    52    1
    55    27    53    1
