@<TRIPOS>MOLECULE
IMPHY001633
 24 25 0 0 0
SMALL
GASTEIGER

@<TRIPOS>ATOM
      1 O           2.3660    2.4330    0.0000 O.3     1  UNL1       -0.3636
      2 O           2.8660   -2.4330    0.0000 O.3     1  UNL1       -0.4951
      3 C           2.8660    1.5670    0.0000 C.3     1  UNL1        0.1099
      4 C           3.3660    2.4330    0.0000 C.3     1  UNL1        0.0870
      5 C           2.8660    0.5670    0.0000 C.ar    1  UNL1       -0.0162
      6 C           4.2320    2.9330    0.0000 C.3     1  UNL1       -0.0359
      7 C           2.0000    0.0670    0.0000 C.ar    1  UNL1       -0.0526
      8 C           3.7320    0.0670    0.0000 C.ar    1  UNL1       -0.0526
      9 C           2.0000   -0.9330    0.0000 C.ar    1  UNL1       -0.0196
     10 C           3.7320   -0.9330    0.0000 C.ar    1  UNL1       -0.0196
     11 C           2.8660   -1.4330    0.0000 C.ar    1  UNL1        0.1201
     12 C           2.0000   -2.9330    0.0000 C.3     1  UNL1        0.0788
     13 H           3.4649    1.4065    0.0000 H       1  UNL1        0.0672
     14 H           3.2056    3.0319    0.0000 H       1  UNL1        0.0623
     15 H           4.5420    2.3961    0.0000 H       1  UNL1        0.0255
     16 H           4.7690    3.2430    0.0000 H       1  UNL1        0.0255
     17 H           3.9220    3.4700    0.0000 H       1  UNL1        0.0255
     18 H           1.4631    0.3770    0.0000 H       1  UNL1        0.0622
     19 H           4.2690    0.3770    0.0000 H       1  UNL1        0.0622
     20 H           1.4631   -1.2430    0.0000 H       1  UNL1        0.0654
     21 H           4.2690   -1.2430    0.0000 H       1  UNL1        0.0654
     22 H           1.6900   -2.3961    0.0000 H       1  UNL1        0.0660
     23 H           1.4631   -3.2430    0.0000 H       1  UNL1        0.0660
     24 H           2.3100   -3.4700    0.0000 H       1  UNL1        0.0660
@<TRIPOS>BOND
     1     1     3    1
     2     1     4    1
     3     2    11    1
     4     2    12    1
     5     3     4    1
     6     3     5    1
     7     3    13    1
     8     4     6    1
     9     4    14    1
    10     5     7   ar
    11     5     8   ar
    12     6    15    1
    13     6    16    1
    14     6    17    1
    15     7     9   ar
    16     7    18    1
    17     8    10   ar
    18     8    19    1
    19     9    11   ar
    20     9    20    1
    21    10    11   ar
    22    10    21    1
    23    12    22    1
    24    12    23    1
    25    12    24    1
