@<TRIPOS>MOLECULE
IMPHY013739
 79 78 0 0 0
SMALL
GASTEIGER

@<TRIPOS>ATOM
      1 O           2.2690    4.2368    0.0000 O.3     1  UNL1       -0.3781
      2 O          10.7536    0.3100    0.0000 O.3     2  UNL2       -0.3781
      3 O           3.1350    6.7368    0.0000 O.3     1  UNL1       -0.3829
      4 O          11.6196    2.8100    0.0000 O.3     2  UNL2       -0.3829
      5 O           0.5369    5.2368    0.0000 O.3     1  UNL1       -0.4788
      6 O           9.0215    1.3100    0.0000 O.3     2  UNL2       -0.4788
      7 O           1.4030    6.7368    0.0000 O.2     1  UNL1       -0.2480
      8 O           9.8875    2.8100    0.0000 O.2     2  UNL2       -0.2480
      9 O           4.8671    5.7368    0.0000 O.co2   1  UNL1       -0.5470
     10 O          13.3516    1.8100    0.0000 O.co2   2  UNL2       -0.5470
     11 O           4.0010    4.2368    0.0000 O.co2   1  UNL1       -0.5470
     12 O          12.4856    0.3100    0.0000 O.co2   2  UNL2       -0.5470
     13 N          13.5937    8.8181    0.0000 N.4     3  UNL3        0.2412
     14 N           8.8468    6.7046    0.0000 N.4     3  UNL3        0.2412
     15 C          14.4027    9.4058    0.0000 C.3     3  UNL3       -0.0302
     16 C          12.7847    9.4058    0.0000 C.3     3  UNL3       -0.0302
     17 C           8.9513    7.6991    0.0000 C.3     3  UNL3       -0.0302
     18 C           7.8686    6.4967    0.0000 C.3     3  UNL3       -0.0302
     19 C          13.0059    8.0090    0.0000 C.3     3  UNL3       -0.0303
     20 C           9.8413    6.6001    0.0000 C.3     3  UNL3       -0.0303
     21 C          14.0937   10.3569    0.0000 C.3     3  UNL3       -0.0077
     22 C          13.0937   10.3569    0.0000 C.3     3  UNL3       -0.0077
     23 C           8.0378    8.1059    0.0000 C.3     3  UNL3       -0.0077
     24 C           7.3686    7.3627    0.0000 C.3     3  UNL3       -0.0077
     25 C          12.0114    8.1136    0.0000 C.3     3  UNL3       -0.0123
     26 C          10.4291    7.4091    0.0000 C.3     3  UNL3       -0.0123
     27 C          11.4236    7.3046    0.0000 C.3     3  UNL3       -0.0434
     28 C          14.1815    8.0090    0.0000 C.3     3  UNL3       -0.0413
     29 C           9.0547    5.7264    0.0000 C.3     3  UNL3       -0.0413
     30 C           2.2690    5.2368    0.0000 C.3     1  UNL1        0.1826
     31 C          10.7536    1.3100    0.0000 C.3     2  UNL2        0.1826
     32 C           3.1350    5.7368    0.0000 C.3     1  UNL1        0.1304
     33 C          11.6196    1.8100    0.0000 C.3     2  UNL2        0.1304
     34 C           1.4030    5.7368    0.0000 C.2     1  UNL1        0.3366
     35 C           9.8875    1.8100    0.0000 C.2     2  UNL2        0.3366
     36 C           4.0010    5.2368    0.0000 C.2     1  UNL1        0.0732
     37 C          12.4856    1.3100    0.0000 C.2     2  UNL2        0.0732
     38 H          14.7127    8.8689    0.0000 H       3  UNL3        0.0815
     39 H          14.9691    9.6580    0.0000 H       3  UNL3        0.0815
     40 H          12.2183    9.6580    0.0000 H       3  UNL3        0.0815
     41 H          12.4747    8.8689    0.0000 H       3  UNL3        0.0815
     42 H           9.5578    7.5702    0.0000 H       3  UNL3        0.0815
     43 H           9.1429    8.2888    0.0000 H       3  UNL3        0.0815
     44 H           7.3022    6.2445    0.0000 H       3  UNL3        0.0815
     45 H           8.0602    5.9070    0.0000 H       3  UNL3        0.0815
     46 H          12.8350    7.4131    0.0000 H       3  UNL3        0.0815
     47 H          13.5632    7.7373    0.0000 H       3  UNL3        0.0815
     48 H           9.6704    6.0041    0.0000 H       3  UNL3        0.0815
     49 H          10.3986    6.3283    0.0000 H       3  UNL3        0.0815
     50 H          14.7002   10.4858    0.0000 H       3  UNL3        0.0319
     51 H          14.0289   10.9735    0.0000 H       3  UNL3        0.0319
     52 H          13.1585   10.9735    0.0000 H       3  UNL3        0.0319
     53 H          12.4873   10.4858    0.0000 H       3  UNL3        0.0319
     54 H           8.3478    8.6428    0.0000 H       3  UNL3        0.0319
     55 H           7.5362    8.4703    0.0000 H       3  UNL3        0.0319
     56 H           6.9538    7.8235    0.0000 H       3  UNL3        0.0319
     57 H           6.8671    6.9983    0.0000 H       3  UNL3        0.0319
     58 H          12.1823    8.7096    0.0000 H       3  UNL3        0.0317
     59 H          11.4542    8.3854    0.0000 H       3  UNL3        0.0317
     60 H          10.6000    8.0051    0.0000 H       3  UNL3        0.0317
     61 H           9.8719    7.6809    0.0000 H       3  UNL3        0.0317
     62 H          11.2527    6.7086    0.0000 H       3  UNL3        0.0269
     63 H          11.9809    7.0328    0.0000 H       3  UNL3        0.0269
     64 H          13.6799    7.6446    0.0000 H       3  UNL3        0.0778
     65 H          14.5459    7.5075    0.0000 H       3  UNL3        0.0778
     66 H          14.6831    8.3735    0.0000 H       3  UNL3        0.0778
     67 H           8.4483    5.5976    0.0000 H       3  UNL3        0.0778
     68 H           9.1836    5.1200    0.0000 H       3  UNL3        0.0778
     69 H           9.6612    5.8554    0.0000 H       3  UNL3        0.0778
     70 H           2.8059    4.9268    0.0000 H       1  UNL1        0.0741
     71 H          10.2166    1.0000    0.0000 H       2  UNL2        0.0741
     72 H           3.6720    6.0468    0.0000 H       1  UNL1        0.0687
     73 H          12.1565    2.1200    0.0000 H       2  UNL2        0.0687
     74 H           1.7320    3.9268    0.0000 H       1  UNL1        0.2106
     75 H          10.2166    0.0000    0.0000 H       2  UNL2        0.2106
     76 H           3.6720    7.0468    0.0000 H       1  UNL1        0.2104
     77 H          12.1565    3.1200    0.0000 H       2  UNL2        0.2104
     78 H           0.0000    5.5468    0.0000 H       1  UNL1        0.2951
     79 H           8.4846    1.6200    0.0000 H       2  UNL2        0.2951
@<TRIPOS>UNITY_ATOM_ATTR
9 1
charge -1
10 1
charge -1
13 1
charge 1
14 1
charge 1
@<TRIPOS>BOND
     1    30     1    1
     2     1    74    1
     3    31     2    1
     4     2    75    1
     5    32     3    1
     6     3    76    1
     7    33     4    1
     8     4    77    1
     9     5    34    1
    10     5    78    1
    11     6    35    1
    12     6    79    1
    13     7    34    2
    14     8    35    2
    15     9    36   ar
    16    10    37   ar
    17    11    36   ar
    18    12    37   ar
    19    13    15    1
    20    13    16    1
    21    13    19    1
    22    13    28    1
    23    14    17    1
    24    14    18    1
    25    14    20    1
    26    14    29    1
    27    15    21    1
    28    15    38    1
    29    15    39    1
    30    16    22    1
    31    16    40    1
    32    16    41    1
    33    17    23    1
    34    17    42    1
    35    17    43    1
    36    18    24    1
    37    18    44    1
    38    18    45    1
    39    19    25    1
    40    19    46    1
    41    19    47    1
    42    20    26    1
    43    20    48    1
    44    20    49    1
    45    21    22    1
    46    21    50    1
    47    21    51    1
    48    22    52    1
    49    22    53    1
    50    23    24    1
    51    23    54    1
    52    23    55    1
    53    24    56    1
    54    24    57    1
    55    25    27    1
    56    25    58    1
    57    25    59    1
    58    26    27    1
    59    26    60    1
    60    26    61    1
    61    27    62    1
    62    27    63    1
    63    28    64    1
    64    28    65    1
    65    28    66    1
    66    29    67    1
    67    29    68    1
    68    29    69    1
    69    30    32    1
    70    30    34    1
    71    30    70    1
    72    31    33    1
    73    31    35    1
    74    31    71    1
    75    32    36    1
    76    32    72    1
    77    33    37    1
    78    33    73    1
