@<TRIPOS>MOLECULE
IMPHY006757
 53 55 0 0 0
SMALL
GASTEIGER

@<TRIPOS>ATOM
      1 O           3.2601   -3.4726    0.0000 O.3     1  UNL1       -0.4584
      2 O           5.5202   -2.2125    0.0000 O.3     1  UNL1       -0.3836
      3 O           2.0000   -2.2125    0.0000 O.2     1  UNL1       -0.2452
      4 C           5.4921    1.0662    0.0000 C.3     1  UNL1       -0.0220
      5 C           5.4921    2.0662    0.0000 C.3     1  UNL1       -0.0296
      6 C           6.3861    2.6009    0.0000 C.3     1  UNL1       -0.0315
      7 C           4.6261    0.5662    0.0000 C.3     1  UNL1       -0.0110
      8 C           6.3861    0.5316    0.0000 C.3     1  UNL1       -0.0468
      9 C           4.6261    2.5662    0.0000 C.3     1  UNL1       -0.0455
     10 C           7.2921    2.0870    0.0000 C.3     1  UNL1       -0.0476
     11 C           7.2921    1.0454    0.0000 C.3     1  UNL1       -0.0520
     12 C           5.4921    0.0662    0.0000 C.3     1  UNL1       -0.0587
     13 C           3.7601    2.0662    0.0000 C.3     1  UNL1       -0.0314
     14 C           3.7601    1.0662    0.0000 C.2     1  UNL1       -0.0727
     15 C           6.8760    3.4726    0.0000 C.3     1  UNL1       -0.0595
     16 C           5.8761    3.4611    0.0000 C.3     1  UNL1       -0.0595
     17 C           4.6261   -0.4338    0.0000 C.3     1  UNL1       -0.0269
     18 C           2.8940    0.5662    0.0000 C.2     1  UNL1       -0.0992
     19 C           3.7601   -0.9338    0.0000 C.2     1  UNL1       -0.0709
     20 C           3.7601   -1.9338    0.0000 C.2     1  UNL1        0.0642
     21 C           4.5691   -2.5216    0.0000 C.3     1  UNL1        0.1205
     22 C           2.9511   -2.5216    0.0000 C.2     1  UNL1        0.3375
     23 C           4.2601   -3.4726    0.0000 C.3     1  UNL1        0.1229
     24 H           5.4856    2.9162    0.0000 H       1  UNL1        0.0311
     25 H           4.0892    0.2562    0.0000 H       1  UNL1        0.0354
     26 H           5.9815    0.0618    0.0000 H       1  UNL1        0.0271
     27 H           6.7797    0.0525    0.0000 H       1  UNL1        0.0271
     28 H           5.0246    3.0412    0.0000 H       1  UNL1        0.0271
     29 H           4.2276    3.0412    0.0000 H       1  UNL1        0.0271
     30 H           7.9030    1.9809    0.0000 H       1  UNL1        0.0271
     31 H           7.5012    2.6707    0.0000 H       1  UNL1        0.0271
     32 H           7.5012    0.4617    0.0000 H       1  UNL1        0.0266
     33 H           7.9030    1.1515    0.0000 H       1  UNL1        0.0266
     34 H           4.8721    0.0662    0.0000 H       1  UNL1        0.0235
     35 H           5.4921   -0.5538    0.0000 H       1  UNL1        0.0235
     36 H           6.1121    0.0662    0.0000 H       1  UNL1        0.0235
     37 H           3.5480    2.6488    0.0000 H       1  UNL1        0.0310
     38 H           3.1495    1.9586    0.0000 H       1  UNL1        0.0310
     39 H           7.4165    3.1689    0.0000 H       1  UNL1        0.0235
     40 H           7.1798    4.0131    0.0000 H       1  UNL1        0.0235
     41 H           6.3355    3.7764    0.0000 H       1  UNL1        0.0235
     42 H           6.4094    3.7772    0.0000 H       1  UNL1        0.0235
     43 H           5.5599    3.9944    0.0000 H       1  UNL1        0.0235
     44 H           5.3428    3.1449    0.0000 H       1  UNL1        0.0235
     45 H           4.8382   -1.0164    0.0000 H       1  UNL1        0.0313
     46 H           5.2367   -0.3261    0.0000 H       1  UNL1        0.0313
     47 H           2.3571    0.8762    0.0000 H       1  UNL1        0.0534
     48 H           2.8940   -0.0538    0.0000 H       1  UNL1        0.0534
     49 H           3.2231   -0.6238    0.0000 H       1  UNL1        0.0578
     50 H           4.6661   -1.9092    0.0000 H       1  UNL1        0.0680
     51 H           4.1953   -4.0892    0.0000 H       1  UNL1        0.0727
     52 H           4.8665   -3.6015    0.0000 H       1  UNL1        0.0727
     53 H           5.9809   -2.6274    0.0000 H       1  UNL1        0.2104
@<TRIPOS>BOND
     1     1    22    1
     2     1    23    1
     3     2    21    1
     4     2    53    1
     5     3    22    2
     6     4     5    1
     7     4     7    1
     8     4     8    1
     9     4    12    1
    10     5     6    1
    11     5     9    1
    12     5    24    1
    13     6    10    1
    14     6    15    1
    15     6    16    1
    16     7    14    1
    17     7    17    1
    18     7    25    1
    19     8    11    1
    20     8    26    1
    21     8    27    1
    22     9    13    1
    23     9    28    1
    24     9    29    1
    25    10    11    1
    26    10    30    1
    27    10    31    1
    28    11    32    1
    29    11    33    1
    30    12    34    1
    31    12    35    1
    32    12    36    1
    33    13    14    1
    34    13    37    1
    35    13    38    1
    36    14    18    2
    37    15    39    1
    38    15    40    1
    39    15    41    1
    40    16    42    1
    41    16    43    1
    42    16    44    1
    43    17    19    1
    44    17    45    1
    45    17    46    1
    46    18    47    1
    47    18    48    1
    48    19    20    2
    49    19    49    1
    50    20    21    1
    51    20    22    1
    52    21    23    1
    53    21    50    1
    54    23    51    1
    55    23    52    1
