@<TRIPOS>MOLECULE
IMPHY004912
 23 24 0 0 0
SMALL
GASTEIGER

@<TRIPOS>ATOM
      1 O           6.0290   -1.3797    0.0000 O.2     1  UNL1       -0.4595
      2 O           4.2690    1.6550    0.0000 O.3     1  UNL1       -0.5027
      3 O           2.5369    0.6550    0.0000 O.3     1  UNL1       -0.5009
      4 O           2.5369   -1.3450    0.0000 O.3     1  UNL1       -0.5031
      5 O           6.0174    1.6896    0.0000 O.2     1  UNL1       -0.2869
      6 C           5.1350    0.1550    0.0000 C.ar    1  UNL1        0.1091
      7 C           5.1350   -0.8450    0.0000 C.ar    1  UNL1        0.1460
      8 C           4.2690    0.6550    0.0000 C.ar    1  UNL1        0.1766
      9 C           6.0290    0.6897    0.0000 C.ar    1  UNL1        0.1964
     10 C           4.2690   -1.3450    0.0000 C.ar    1  UNL1        0.0267
     11 C           6.9350   -0.8658    0.0000 C.ar    1  UNL1        0.1062
     12 C           3.4030    0.1550    0.0000 C.ar    1  UNL1        0.2015
     13 C           3.4030   -0.8450    0.0000 C.ar    1  UNL1        0.1655
     14 C           6.9350    0.1758    0.0000 C.ar    1  UNL1        0.0237
     15 C           7.7991   -1.3692    0.0000 C.3     1  UNL1       -0.0062
     16 H           4.2690   -1.9650    0.0000 H       1  UNL1        0.0692
     17 H           7.4708    0.4879    0.0000 H       1  UNL1        0.0689
     18 H           7.4870   -1.9049    0.0000 H       1  UNL1        0.0308
     19 H           8.3348   -1.6812    0.0000 H       1  UNL1        0.0308
     20 H           8.1112   -0.8334    0.0000 H       1  UNL1        0.0308
     21 H           3.7320    1.9650    0.0000 H       1  UNL1        0.2923
     22 H           2.0000    0.3450    0.0000 H       1  UNL1        0.2924
     23 H           2.5369   -1.9650    0.0000 H       1  UNL1        0.2923
@<TRIPOS>BOND
     1     1     7   ar
     2     1    11   ar
     3     2     8    1
     4     2    21    1
     5     3    12    1
     6     3    22    1
     7     4    13    1
     8     4    23    1
     9     5     9    2
    10     6     7   ar
    11     6     8   ar
    12     6     9   ar
    13     7    10   ar
    14     8    12   ar
    15     9    14   ar
    16    10    13   ar
    17    10    16    1
    18    11    14   ar
    19    11    15    1
    20    12    13   ar
    21    14    17    1
    22    15    18    1
    23    15    19    1
    24    15    20    1
