@<TRIPOS>MOLECULE
IMPHY017067
 27 28 0 0 0
SMALL
GASTEIGER

@<TRIPOS>ATOM
      1 O           5.6137   -2.1590    0.0000 O.2     1  UNL1       -0.2843
      2 N           6.2385    0.1730    0.0000 N.2     1  UNL1       -0.1633
      3 N           7.1045    0.6730    0.0000 N.2     1  UNL1       -0.3640
      4 C           3.2369    1.1644    0.0000 C.3     1  UNL1       -0.0087
      5 C           3.7147   -0.7841    0.0000 C.3     1  UNL1        0.0435
      6 C           3.9735    0.1818    0.0000 C.3     1  UNL1        0.0702
      7 C           2.3420   -1.3761    0.0000 C.3     1  UNL1       -0.0390
      8 C           2.0000   -0.4364    0.0000 C.3     1  UNL1       -0.0380
      9 C           5.1137   -1.2929    0.0000 C.2     1  UNL1        0.2456
     10 C           5.3725   -0.3270    0.0000 C.2     1  UNL1        0.3404
     11 C           3.3415    2.1590    0.0000 C.3     1  UNL1       -0.0581
     12 C           2.3234    1.5712    0.0000 C.3     1  UNL1       -0.0581
     13 C           3.4559   -1.7500    0.0000 C.3     1  UNL1       -0.0517
     14 H           3.9595   -0.4380    0.0000 H       1  UNL1        0.0426
     15 H           1.7636   -1.5994    0.0000 H       1  UNL1        0.0275
     16 H           2.5765   -1.9501    0.0000 H       1  UNL1        0.0275
     17 H           1.8057    0.1523    0.0000 H       1  UNL1        0.0274
     18 H           1.4142   -0.6396    0.0000 H       1  UNL1        0.0274
     19 H           3.9581    2.0942    0.0000 H       1  UNL1        0.0235
     20 H           3.4063    2.7756    0.0000 H       1  UNL1        0.0235
     21 H           2.7248    2.2238    0.0000 H       1  UNL1        0.0235
     22 H           2.5756    2.1376    0.0000 H       1  UNL1        0.0235
     23 H           1.7570    1.8233    0.0000 H       1  UNL1        0.0235
     24 H           2.0712    1.0048    0.0000 H       1  UNL1        0.0235
     25 H           2.8570   -1.5896    0.0000 H       1  UNL1        0.0239
     26 H           3.2954   -2.3489    0.0000 H       1  UNL1        0.0239
     27 H           4.0548   -1.9105    0.0000 H       1  UNL1        0.0239
@<TRIPOS>UNITY_ATOM_ATTR
2 1
charge 1
3 1
charge -1
@<TRIPOS>BOND
     1     1     9    2
     2     2     3    2
     3     2    10    2
     4     4     5    1
     5     4     6    1
     6     4    11    1
     7     4    12    1
     8     5     7    1
     9     5     9    1
    10     5    13    1
    11     6     8    1
    12     6    10    1
    13     6    14    1
    14     7     8    1
    15     7    15    1
    16     7    16    1
    17     8    17    1
    18     8    18    1
    19     9    10    1
    20    11    19    1
    21    11    20    1
    22    11    21    1
    23    12    22    1
    24    12    23    1
    25    12    24    1
    26    13    25    1
    27    13    26    1
    28    13    27    1
