@<TRIPOS>MOLECULE
IMPHY012753
 91 96 0 0 0
SMALL
GASTEIGER

@<TRIPOS>ATOM
      1 O          11.2079   -1.3968    0.0000 O.3     1  UNL1       -0.3302
      2 O           5.1350   -0.8812    0.0000 O.3     1  UNL1       -0.3313
      3 O          10.3592    0.1131    0.0000 O.3     1  UNL1       -0.4515
      4 O           6.8671   -0.8812    0.0000 O.3     1  UNL1       -0.4598
      5 O          10.3130   -3.8866    0.0000 O.3     1  UNL1       -0.3864
      6 O           8.5926   -2.8666    0.0000 O.3     1  UNL1       -0.3864
      7 O           8.6158   -0.8668    0.0000 O.3     1  UNL1       -0.3829
      8 O           5.1350   -3.8812    0.0000 O.3     1  UNL1       -0.3864
      9 O           3.4030   -2.8812    0.0000 O.3     1  UNL1       -0.3865
     10 O           6.8671   -2.8812    0.0000 O.3     1  UNL1       -0.3829
     11 O          12.9282   -2.4168    0.0000 O.3     1  UNL1       -0.4589
     12 O           2.5369   -1.3812    0.0000 O.3     1  UNL1       -0.3924
     13 O           8.6504    2.1330    0.0000 O.2     1  UNL1       -0.1997
     14 O           5.1208    2.1980    0.0000 O.3     1  UNL1       -0.5063
     15 O          13.7769   -3.9267    0.0000 O.2     1  UNL1       -0.2456
     16 O          12.9745    1.5830    0.0000 O.3     1  UNL1       -0.5033
     17 O          12.9976    3.5828    0.0000 O.3     1  UNL1       -0.5033
     18 O          19.0074   -0.9870    0.0000 O.3     1  UNL1       -0.5068
     19 C          10.3246   -2.8867    0.0000 C.3     1  UNL1        0.1130
     20 C           9.4644   -2.3767    0.0000 C.3     1  UNL1        0.1152
     21 C          11.1963   -2.3967    0.0000 C.3     1  UNL1        0.1250
     22 C           9.4759   -1.3768    0.0000 C.3     1  UNL1        0.1454
     23 C           5.1350   -2.8812    0.0000 C.3     1  UNL1        0.1152
     24 C           4.2690   -2.3812    0.0000 C.3     1  UNL1        0.1120
     25 C           6.0010   -2.3812    0.0000 C.3     1  UNL1        0.1454
     26 C           4.2690   -1.3812    0.0000 C.3     1  UNL1        0.1140
     27 C          10.3477   -0.8868    0.0000 C.3     1  UNL1        0.2313
     28 C           6.0010   -1.3812    0.0000 C.3     1  UNL1        0.2308
     29 C          12.0565   -2.9067    0.0000 C.3     1  UNL1        0.1215
     30 C           3.4030   -0.8812    0.0000 C.3     1  UNL1        0.0731
     31 C           9.4991    0.6231    0.0000 C.ar    1  UNL1        0.2288
     32 C           6.8671    0.1188    0.0000 C.ar    1  UNL1        0.1437
     33 C           7.7671    0.6431    0.0000 C.ar    1  UNL1        0.1245
     34 C           8.6273    0.1331    0.0000 C.ar    1  UNL1        0.0093
     35 C           9.5106    1.6230    0.0000 C.ar    1  UNL1        0.4046
     36 C           7.7787    1.6431    0.0000 C.ar    1  UNL1        0.3708
     37 C           5.9670    0.6431    0.0000 C.ar    1  UNL1        0.0229
     38 C           6.8910    2.1880    0.0000 C.ar    1  UNL1        0.0847
     39 C           5.9790    1.6847    0.0000 C.ar    1  UNL1        0.1293
     40 C          10.3824    2.1130    0.0000 C.ar    1  UNL1        0.0865
     41 C          13.7884   -2.9267    0.0000 C.2     1  UNL1        0.3320
     42 C          11.2426    1.6030    0.0000 C.ar    1  UNL1       -0.0003
     43 C          10.3939    3.1129    0.0000 C.ar    1  UNL1       -0.0418
     44 C          14.6602   -2.4368    0.0000 C.2     1  UNL1        0.0231
     45 C          12.1143    2.0930    0.0000 C.ar    1  UNL1        0.1591
     46 C          11.2657    3.6029    0.0000 C.ar    1  UNL1       -0.0157
     47 C          12.1259    3.0929    0.0000 C.ar    1  UNL1        0.1583
     48 C          15.5204   -2.9468    0.0000 C.2     1  UNL1       -0.0478
     49 C          16.3921   -2.4568    0.0000 C.ar    1  UNL1       -0.0246
     50 C          16.4037   -1.4569    0.0000 C.ar    1  UNL1       -0.0511
     51 C          17.2523   -2.9668    0.0000 C.ar    1  UNL1       -0.0511
     52 C          17.2754   -0.9669    0.0000 C.ar    1  UNL1       -0.0196
     53 C          18.1240   -2.4768    0.0000 C.ar    1  UNL1       -0.0196
     54 C          18.1356   -1.4769    0.0000 C.ar    1  UNL1        0.1169
     55 H          10.9720   -3.2705    0.0000 H       1  UNL1        0.0647
     56 H          10.1205   -2.0080    0.0000 H       1  UNL1        0.0648
     57 H          10.5489   -2.0129    0.0000 H       1  UNL1        0.0658
     58 H           8.8198   -1.7456    0.0000 H       1  UNL1        0.0683
     59 H           5.7868   -3.2575    0.0000 H       1  UNL1        0.0648
     60 H           3.6172   -2.0049    0.0000 H       1  UNL1        0.0647
     61 H           6.0011   -3.1338    0.0000 H       1  UNL1        0.0683
     62 H           3.6172   -1.7575    0.0000 H       1  UNL1        0.0647
     63 H          11.0038   -0.5181    0.0000 H       1  UNL1        0.1084
     64 H           6.0011   -0.6286    0.0000 H       1  UNL1        0.1084
     65 H          12.4253   -3.5628    0.0000 H       1  UNL1        0.0725
     66 H          11.6727   -3.5541    0.0000 H       1  UNL1        0.0725
     67 H           3.0267   -0.2294    0.0000 H       1  UNL1        0.0584
     68 H           3.7794   -0.2294    0.0000 H       1  UNL1        0.0584
     69 H          10.3043   -4.6392    0.0000 H       1  UNL1        0.2100
     70 H           7.9365   -3.2353    0.0000 H       1  UNL1        0.2100
     71 H           7.9684   -0.4829    0.0000 H       1  UNL1        0.2102
     72 H           5.1350   -4.6338    0.0000 H       1  UNL1        0.2100
     73 H           2.7512   -3.2575    0.0000 H       1  UNL1        0.2100
     74 H           7.5189   -3.2575    0.0000 H       1  UNL1        0.2102
     75 H           8.6186   -0.6195    0.0000 H       1  UNL1        0.0667
     76 H           1.8851   -1.7575    0.0000 H       1  UNL1        0.2095
     77 H           5.3123    0.2718    0.0000 H       1  UNL1        0.0691
     78 H           6.9084    2.9404    0.0000 H       1  UNL1        0.0749
     79 H          11.2339    0.8504    0.0000 H       1  UNL1        0.0664
     80 H           9.7464    3.4967    0.0000 H       1  UNL1        0.0628
     81 H          14.6689   -1.6842    0.0000 H       1  UNL1        0.0689
     82 H           4.4749    2.5843    0.0000 H       1  UNL1        0.2921
     83 H          11.2744    4.3555    0.0000 H       1  UNL1        0.0655
     84 H          15.5117   -3.6994    0.0000 H       1  UNL1        0.0626
     85 H          13.6219    1.1992    0.0000 H       1  UNL1        0.2923
     86 H          13.6537    3.9515    0.0000 H       1  UNL1        0.2923
     87 H          15.7563   -1.0731    0.0000 H       1  UNL1        0.0625
     88 H          17.2436   -3.7194    0.0000 H       1  UNL1        0.0625
     89 H          17.2841   -0.2143    0.0000 H       1  UNL1        0.0654
     90 H          18.7714   -2.8606    0.0000 H       1  UNL1        0.0654
     91 H          19.6635   -0.6183    0.0000 H       1  UNL1        0.2921
@<TRIPOS>UNITY_ATOM_ATTR
13 1
charge 1
@<TRIPOS>BOND
     1     1    21    1
     2     1    27    1
     3     2    26    1
     4     2    28    1
     5     3    27    1
     6     3    31    1
     7     4    28    1
     8     4    32    1
     9     5    19    1
    10     5    69    1
    11     6    20    1
    12     6    70    1
    13     7    22    1
    14     7    71    1
    15     8    23    1
    16     8    72    1
    17     9    24    1
    18     9    73    1
    19    10    25    1
    20    10    74    1
    21    11    29    1
    22    11    41    1
    23    12    30    1
    24    12    76    1
    25    13    35   ar
    26    13    36   ar
    27    14    39    1
    28    14    82    1
    29    15    41    2
    30    16    45    1
    31    16    85    1
    32    17    47    1
    33    17    86    1
    34    18    54    1
    35    18    91    1
    36    19    20    1
    37    19    21    1
    38    19    55    1
    39    20    22    1
    40    20    56    1
    41    21    29    1
    42    21    57    1
    43    22    27    1
    44    22    58    1
    45    23    24    1
    46    23    25    1
    47    23    59    1
    48    24    26    1
    49    24    60    1
    50    25    28    1
    51    25    61    1
    52    26    30    1
    53    26    62    1
    54    27    63    1
    55    28    64    1
    56    29    65    1
    57    29    66    1
    58    30    67    1
    59    30    68    1
    60    31    34   ar
    61    31    35   ar
    62    32    33   ar
    63    32    37   ar
    64    33    34   ar
    65    33    36   ar
    66    34    75    1
    67    35    40    1
    68    36    38   ar
    69    37    39   ar
    70    37    77    1
    71    38    39   ar
    72    38    78    1
    73    40    42   ar
    74    40    43   ar
    75    41    44    1
    76    42    45   ar
    77    42    79    1
    78    43    46   ar
    79    43    80    1
    80    44    48    2
    81    44    81    1
    82    45    47   ar
    83    46    47   ar
    84    46    83    1
    85    48    49    1
    86    48    84    1
    87    49    50   ar
    88    49    51   ar
    89    50    52   ar
    90    50    87    1
    91    51    53   ar
    92    51    88    1
    93    52    54   ar
    94    52    89    1
    95    53    54   ar
    96    53    90    1
