@<TRIPOS>MOLECULE
IMPHY001772
 18 18 0 0 0
SMALL
GASTEIGER

@<TRIPOS>ATOM
      1 S           4.5691   -1.4464    0.0000 S.2     1  UNL1       -0.0352
      2 O           3.4901    1.5362    0.0000 O.2     1  UNL1       -0.5022
      3 N           2.8090   -1.7252    0.0000 N.am    1  UNL1       -0.3375
      4 C           2.3090   -0.1864    0.0000 C.3     1  UNL1       -0.0070
      5 C           2.0000   -1.1374    0.0000 C.3     1  UNL1        0.0137
      6 C           3.3090   -0.1864    0.0000 C.2     1  UNL1        0.0164
      7 C           3.6180   -1.1374    0.0000 C.2     1  UNL1        0.0783
      8 C           3.8968    0.6226    0.0000 C.2     1  UNL1        0.0896
      9 C           4.0778    2.3452    0.0000 C.3     1  UNL1        0.0780
     10 H           2.3738    0.4302    0.0000 H       1  UNL1        0.0330
     11 H           1.7026   -0.0575    0.0000 H       1  UNL1        0.0330
     12 H           1.4336   -0.8852    0.0000 H       1  UNL1        0.0464
     13 H           1.6900   -1.6744    0.0000 H       1  UNL1        0.0464
     14 H           2.8090   -2.3452    0.0000 H       1  UNL1        0.1466
     15 H           4.5134    0.5578    0.0000 H       1  UNL1        0.1026
     16 H           4.5794    1.9808    0.0000 H       1  UNL1        0.0660
     17 H           4.4423    2.8468    0.0000 H       1  UNL1        0.0660
     18 H           3.5763    2.7096    0.0000 H       1  UNL1        0.0660
@<TRIPOS>BOND
     1     1     7    2
     2     2     8    1
     3     2     9    1
     4     3     5    1
     5     3     7    1
     6     3    14    1
     7     4     5    1
     8     4     6    1
     9     4    10    1
    10     4    11    1
    11     5    12    1
    12     5    13    1
    13     6     7    1
    14     6     8    2
    15     8    15    1
    16     9    16    1
    17     9    17    1
    18     9    18    1
