@<TRIPOS>MOLECULE
IMPHY011449
 37 36 0 0 0
SMALL
GASTEIGER

@<TRIPOS>ATOM
      1 O           7.1962    1.9400    0.0000 O.3     1  UNL1       -0.4605
      2 O           8.0622    0.4400    0.0000 O.2     1  UNL1       -0.2509
      3 C           4.5981    0.4400    0.0000 C.3     1  UNL1       -0.0285
      4 C           3.7320   -0.0600    0.0000 C.3     1  UNL1       -0.0308
      5 C           4.5981    1.4400    0.0000 C.2     1  UNL1       -0.0731
      6 C           3.7320   -1.0600    0.0000 C.2     1  UNL1       -0.0850
      7 C           5.4641    1.9400    0.0000 C.2     1  UNL1       -0.0480
      8 C           3.7320    1.9400    0.0000 C.3     1  UNL1       -0.0437
      9 C           2.8660   -1.5600    0.0000 C.2     1  UNL1       -0.0796
     10 C           6.3301    1.4400    0.0000 C.3     1  UNL1        0.1109
     11 C           2.8660   -2.5600    0.0000 C.3     1  UNL1       -0.0440
     12 C           2.0000   -1.0600    0.0000 C.3     1  UNL1       -0.0440
     13 C           8.9282    1.9400    0.0000 C.3     1  UNL1        0.0421
     14 C           8.0622    1.4400    0.0000 C.2     1  UNL1        0.3071
     15 C           9.7942    1.4400    0.0000 C.3     1  UNL1       -0.0552
     16 H           4.8101   -0.1426    0.0000 H       1  UNL1        0.0313
     17 H           5.2087    0.5477    0.0000 H       1  UNL1        0.0313
     18 H           3.5200    0.5226    0.0000 H       1  UNL1        0.0310
     19 H           3.1215   -0.1677    0.0000 H       1  UNL1        0.0310
     20 H           4.2690   -1.3700    0.0000 H       1  UNL1        0.0572
     21 H           5.4641    2.5600    0.0000 H       1  UNL1        0.0605
     22 H           4.0420    2.4769    0.0000 H       1  UNL1        0.0274
     23 H           3.1951    2.2500    0.0000 H       1  UNL1        0.0274
     24 H           3.4220    1.4031    0.0000 H       1  UNL1        0.0274
     25 H           5.9316    0.9651    0.0000 H       1  UNL1        0.0743
     26 H           6.7287    0.9651    0.0000 H       1  UNL1        0.0743
     27 H           2.2460   -2.5600    0.0000 H       1  UNL1        0.0274
     28 H           2.8660   -3.1800    0.0000 H       1  UNL1        0.0274
     29 H           3.4860   -2.5600    0.0000 H       1  UNL1        0.0274
     30 H           2.3100   -0.5231    0.0000 H       1  UNL1        0.0274
     31 H           1.4631   -0.7500    0.0000 H       1  UNL1        0.0274
     32 H           1.6900   -1.5969    0.0000 H       1  UNL1        0.0274
     33 H           9.3267    2.4150    0.0000 H       1  UNL1        0.0375
     34 H           8.5297    2.4150    0.0000 H       1  UNL1        0.0375
     35 H           9.4842    0.9031    0.0000 H       1  UNL1        0.0235
     36 H          10.3312    1.1300    0.0000 H       1  UNL1        0.0235
     37 H          10.1042    1.9769    0.0000 H       1  UNL1        0.0235
@<TRIPOS>BOND
     1     1    10    1
     2     1    14    1
     3     2    14    2
     4     3     4    1
     5     3     5    1
     6     3    16    1
     7     3    17    1
     8     4     6    1
     9     4    18    1
    10     4    19    1
    11     5     7    2
    12     5     8    1
    13     6     9    2
    14     6    20    1
    15     7    10    1
    16     7    21    1
    17     8    22    1
    18     8    23    1
    19     8    24    1
    20     9    11    1
    21     9    12    1
    22    10    25    1
    23    10    26    1
    24    11    27    1
    25    11    28    1
    26    11    29    1
    27    12    30    1
    28    12    31    1
    29    12    32    1
    30    13    14    1
    31    13    15    1
    32    13    33    1
    33    13    34    1
    34    15    35    1
    35    15    36    1
    36    15    37    1
