@<TRIPOS>MOLECULE
IMPHY001264
 34 36 0 0 0
SMALL
GASTEIGER

@<TRIPOS>ATOM
      1 O           6.0682   -0.9254    0.0000 O.3     1  UNL1       -0.4835
      2 O           6.0682    2.0746    0.0000 O.3     1  UNL1       -0.3868
      3 O           4.3198    2.1092    0.0000 O.3     1  UNL1       -0.5062
      4 O           2.5381   -0.9495    0.0000 O.3     1  UNL1       -0.5065
      5 O          10.3984   -2.4254    0.0000 O.3     1  UNL1       -0.5068
      6 C           6.9343    0.5746    0.0000 C.3     1  UNL1        0.0190
      7 C           6.9343   -0.4254    0.0000 C.3     1  UNL1        0.1278
      8 C           6.0682    1.0746    0.0000 C.3     1  UNL1        0.0907
      9 C           5.2022    0.5746    0.0000 C.ar    1  UNL1        0.0641
     10 C           5.2022   -0.4254    0.0000 C.ar    1  UNL1        0.1340
     11 C           7.8003   -0.9254    0.0000 C.ar    1  UNL1       -0.0070
     12 C           4.3083    1.1093    0.0000 C.ar    1  UNL1        0.1294
     13 C           4.3083   -0.9601    0.0000 C.ar    1  UNL1        0.0222
     14 C           7.8003   -1.9254    0.0000 C.ar    1  UNL1       -0.0516
     15 C           8.6663   -0.4254    0.0000 C.ar    1  UNL1       -0.0516
     16 C           3.4022    0.5954    0.0000 C.ar    1  UNL1        0.0219
     17 C           3.4022   -0.4462    0.0000 C.ar    1  UNL1        0.1238
     18 C           8.6663   -2.4254    0.0000 C.ar    1  UNL1       -0.0198
     19 C           9.5323   -0.9254    0.0000 C.ar    1  UNL1       -0.0198
     20 C           9.5323   -1.9254    0.0000 C.ar    1  UNL1        0.1169
     21 H           7.5449    0.4669    0.0000 H       1  UNL1        0.0333
     22 H           7.1463    1.1572    0.0000 H       1  UNL1        0.0333
     23 H           6.9343   -1.0454    0.0000 H       1  UNL1        0.0785
     24 H           6.6052    1.3846    0.0000 H       1  UNL1        0.0647
     25 H           4.3154   -1.5800    0.0000 H       1  UNL1        0.0691
     26 H           7.2634   -2.2354    0.0000 H       1  UNL1        0.0623
     27 H           8.6663    0.1946    0.0000 H       1  UNL1        0.0623
     28 H           6.6052    2.3846    0.0000 H       1  UNL1        0.2102
     29 H           2.8665    0.9075    0.0000 H       1  UNL1        0.0691
     30 H           8.6663   -3.0454    0.0000 H       1  UNL1        0.0654
     31 H          10.0693   -0.6154    0.0000 H       1  UNL1        0.0654
     32 H           3.7865    2.4254    0.0000 H       1  UNL1        0.2922
     33 H           2.0000   -0.6416    0.0000 H       1  UNL1        0.2921
     34 H          10.9353   -2.1154    0.0000 H       1  UNL1        0.2921
@<TRIPOS>BOND
     1     1     7    1
     2     1    10    1
     3     2     8    1
     4     2    28    1
     5     3    12    1
     6     3    32    1
     7     4    17    1
     8     4    33    1
     9     5    20    1
    10     5    34    1
    11     6     7    1
    12     6     8    1
    13     6    21    1
    14     6    22    1
    15     7    11    1
    16     7    23    1
    17     8     9    1
    18     8    24    1
    19     9    10   ar
    20     9    12   ar
    21    10    13   ar
    22    11    14   ar
    23    11    15   ar
    24    12    16   ar
    25    13    17   ar
    26    13    25    1
    27    14    18   ar
    28    14    26    1
    29    15    19   ar
    30    15    27    1
    31    16    17   ar
    32    16    29    1
    33    18    20   ar
    34    18    30    1
    35    19    20   ar
    36    19    31    1
