@<TRIPOS>MOLECULE
IMPHY007472
 166 174 0 0 0
SMALL
GASTEIGER

@<TRIPOS>ATOM
      1 O          12.3923    3.6379    0.0000 O.3     1  UNL1       -0.3313
      2 O           8.0622    4.1379    0.0000 O.3     1  UNL1       -0.3394
      3 O           9.7942    4.1379    0.0000 O.3     1  UNL1       -0.3460
      4 O          10.6603    5.6379    0.0000 O.3     1  UNL1       -0.3865
      5 O          14.1244    3.6379    0.0000 O.3     1  UNL1       -0.4515
      6 O          12.3923    6.6379    0.0000 O.3     1  UNL1       -0.3864
      7 O           9.7942    2.1379    0.0000 O.3     1  UNL1       -0.3841
      8 O           8.0622    1.1379    0.0000 O.3     1  UNL1       -0.3864
      9 O          14.1244    5.6379    0.0000 O.3     1  UNL1       -0.3829
     10 O           6.3301    2.1379    0.0000 O.3     1  UNL1       -0.3864
     11 O          12.3860   -3.4346    0.0000 O.3     1  UNL1       -0.3302
     12 O           6.3301    5.1379    0.0000 O.3     1  UNL1       -0.4589
     13 O          19.3205    0.6379    0.0000 O.3     1  UNL1       -0.3313
     14 O          13.2462   -1.9313    0.0000 O.3     1  UNL1       -0.4604
     15 O           9.7899   -3.9446    0.0000 O.3     1  UNL1       -0.3864
     16 O           9.7822   -1.9447    0.0000 O.3     1  UNL1       -0.3864
     17 O          18.4545    2.1379    0.0000 O.3     1  UNL1       -0.4571
     18 O          11.5103   -0.9380    0.0000 O.3     1  UNL1       -0.3829
     19 O          16.7224   -0.8621    0.0000 O.3     1  UNL1       -0.3864
     20 O          18.4545   -1.8621    0.0000 O.3     1  UNL1       -0.3865
     21 O          16.7224    1.1379    0.0000 O.3     1  UNL1       -0.3829
     22 O          14.9904    1.1379    0.0000 O.2     1  UNL1       -0.1997
     23 O          10.6617   -5.4413    0.0000 O.3     1  UNL1       -0.4589
     24 O          21.0526   -0.3621    0.0000 O.3     1  UNL1       -0.3924
     25 O          11.4881    1.1411    0.0000 O.3     1  UNL1       -0.5057
     26 O           4.5981    5.1379    0.0000 O.2     1  UNL1       -0.2456
     27 O          18.4545    4.1379    0.0000 O.3     1  UNL1       -0.5033
     28 O          11.5335   -6.9380    0.0000 O.2     1  UNL1       -0.2456
     29 O           6.3301   10.1379    0.0000 O.3     1  UNL1       -0.4913
     30 O           2.8660   10.1379    0.0000 O.3     1  UNL1       -0.4913
     31 O           4.5981   11.1379    0.0000 O.3     1  UNL1       -0.5009
     32 O           8.0848  -10.9513    0.0000 O.3     1  UNL1       -0.4913
     33 O           6.3412   -7.9580    0.0000 O.3     1  UNL1       -0.4913
     34 O           6.3489   -9.9580    0.0000 O.3     1  UNL1       -0.5009
     35 C          11.5263    4.1379    0.0000 C.3     1  UNL1        0.1144
     36 C          11.5263    5.1379    0.0000 C.3     1  UNL1        0.1120
     37 C          12.3923    5.6379    0.0000 C.3     1  UNL1        0.1152
     38 C           8.9282    2.6379    0.0000 C.3     1  UNL1        0.1341
     39 C           8.0622    2.1379    0.0000 C.3     1  UNL1        0.1141
     40 C           8.9282    3.6379    0.0000 C.3     1  UNL1        0.1881
     41 C          13.2583    5.1379    0.0000 C.3     1  UNL1        0.1454
     42 C           7.1962    2.6379    0.0000 C.3     1  UNL1        0.1129
     43 C           7.1962    3.6379    0.0000 C.3     1  UNL1        0.1240
     44 C          13.2583    4.1379    0.0000 C.3     1  UNL1        0.2312
     45 C          10.6603    3.6379    0.0000 C.3     1  UNL1        0.0796
     46 C           6.3301    4.1379    0.0000 C.3     1  UNL1        0.1215
     47 C          10.6540   -3.4413    0.0000 C.3     1  UNL1        0.1130
     48 C          10.6501   -2.4413    0.0000 C.3     1  UNL1        0.1152
     49 C          11.5219   -3.9380    0.0000 C.3     1  UNL1        0.1250
     50 C          11.5142   -1.9380    0.0000 C.3     1  UNL1        0.1454
     51 C          17.5885   -0.3621    0.0000 C.3     1  UNL1        0.1152
     52 C          18.4545   -0.8621    0.0000 C.3     1  UNL1        0.1120
     53 C          12.3821   -2.4346    0.0000 C.3     1  UNL1        0.2308
     54 C          17.5885    0.6379    0.0000 C.3     1  UNL1        0.1454
     55 C          19.3205   -0.3621    0.0000 C.3     1  UNL1        0.1140
     56 C          18.4545    1.1379    0.0000 C.3     1  UNL1        0.2310
     57 C          14.1244    2.6379    0.0000 C.ar    1  UNL1        0.2288
     58 C          11.5258   -4.9380    0.0000 C.3     1  UNL1        0.1215
     59 C          14.9904    2.1379    0.0000 C.ar    1  UNL1        0.4046
     60 C          20.1865   -0.8621    0.0000 C.3     1  UNL1        0.0731
     61 C          13.2583    2.1379    0.0000 C.ar    1  UNL1        0.0093
     62 C          13.2583    1.1379    0.0000 C.ar    1  UNL1        0.1241
     63 C          14.1244    0.6379    0.0000 C.ar    1  UNL1        0.3708
     64 C          13.2424   -0.9313    0.0000 C.ar    1  UNL1        0.1364
     65 C          15.8564    2.6379    0.0000 C.ar    1  UNL1        0.0865
     66 C          17.5885    2.6379    0.0000 C.ar    1  UNL1        0.1660
     67 C          14.1404   -0.4036    0.0000 C.ar    1  UNL1        0.0851
     68 C           5.4641    5.6379    0.0000 C.2     1  UNL1        0.3320
     69 C          12.3483    0.6311    0.0000 C.ar    1  UNL1        0.1366
     70 C          16.7224    2.1379    0.0000 C.ar    1  UNL1        0.0001
     71 C          12.3403   -0.4105    0.0000 C.ar    1  UNL1        0.0229
     72 C          15.8564    3.6379    0.0000 C.ar    1  UNL1       -0.0418
     73 C          17.5885    3.6379    0.0000 C.ar    1  UNL1        0.1586
     74 C          16.7224    4.1379    0.0000 C.ar    1  UNL1       -0.0157
     75 C           5.4641    6.6379    0.0000 C.2     1  UNL1        0.0231
     76 C          10.6655   -6.4413    0.0000 C.2     1  UNL1        0.3320
     77 C           4.5981    7.1379    0.0000 C.2     1  UNL1       -0.0476
     78 C           9.8014   -6.9446    0.0000 C.2     1  UNL1        0.0231
     79 C           4.5981    8.1379    0.0000 C.ar    1  UNL1       -0.0177
     80 C           9.8053   -7.9446    0.0000 C.2     1  UNL1       -0.0476
     81 C           3.7320    8.6379    0.0000 C.ar    1  UNL1       -0.0089
     82 C           5.4641    8.6379    0.0000 C.ar    1  UNL1       -0.0089
     83 C           8.9412   -8.4480    0.0000 C.ar    1  UNL1       -0.0177
     84 C           5.4641    9.6379    0.0000 C.ar    1  UNL1        0.1655
     85 C           3.7320    9.6379    0.0000 C.ar    1  UNL1        0.1655
     86 C           4.5981   10.1379    0.0000 C.ar    1  UNL1        0.2010
     87 C           8.0732   -7.9513    0.0000 C.ar    1  UNL1       -0.0089
     88 C           8.9450   -9.4480    0.0000 C.ar    1  UNL1       -0.0089
     89 C           8.0810   -9.9513    0.0000 C.ar    1  UNL1        0.1655
     90 C           7.2092   -8.4546    0.0000 C.ar    1  UNL1        0.1655
     91 C           7.2130   -9.4546    0.0000 C.ar    1  UNL1        0.2010
     92 C           6.3301   11.1379    0.0000 C.3     1  UNL1        0.0790
     93 C           2.0000    9.6379    0.0000 C.3     1  UNL1        0.0790
     94 C           8.9528  -11.4479    0.0000 C.3     1  UNL1        0.0790
     95 C           5.4771   -8.4613    0.0000 C.3     1  UNL1        0.0790
     96 H          11.5263    3.5179    0.0000 H       1  UNL1        0.0647
     97 H          10.9893    4.8279    0.0000 H       1  UNL1        0.0647
     98 H          11.8554    5.9479    0.0000 H       1  UNL1        0.0648
     99 H           9.4651    2.9479    0.0000 H       1  UNL1        0.0671
    100 H           8.5991    1.8279    0.0000 H       1  UNL1        0.0648
    101 H           8.9282    4.2579    0.0000 H       1  UNL1        0.0937
    102 H          13.7953    4.8279    0.0000 H       1  UNL1        0.0683
    103 H           7.1962    2.0179    0.0000 H       1  UNL1        0.0647
    104 H           7.1962    4.2579    0.0000 H       1  UNL1        0.0658
    105 H          13.2583    3.5179    0.0000 H       1  UNL1        0.1084
    106 H          10.2617    3.1630    0.0000 H       1  UNL1        0.0587
    107 H          11.0588    3.1630    0.0000 H       1  UNL1        0.0587
    108 H           5.7196    4.2456    0.0000 H       1  UNL1        0.0725
    109 H           6.1181    3.5553    0.0000 H       1  UNL1        0.0725
    110 H          10.6603    6.2579    0.0000 H       1  UNL1        0.2100
    111 H          10.6563   -4.0613    0.0000 H       1  UNL1        0.0647
    112 H          10.1144   -2.7534    0.0000 H       1  UNL1        0.0648
    113 H          12.9292    6.9479    0.0000 H       1  UNL1        0.2100
    114 H          12.0600   -4.2459    0.0000 H       1  UNL1        0.0658
    115 H          10.9761   -1.6301    0.0000 H       1  UNL1        0.0683
    116 H          10.3312    2.4479    0.0000 H       1  UNL1        0.2101
    117 H           7.5252    0.8279    0.0000 H       1  UNL1        0.2100
    118 H          14.6613    5.3279    0.0000 H       1  UNL1        0.2102
    119 H           5.7932    2.4479    0.0000 H       1  UNL1        0.2100
    120 H          17.5885   -0.9821    0.0000 H       1  UNL1        0.0648
    121 H          18.9914   -1.1721    0.0000 H       1  UNL1        0.0647
    122 H          12.3798   -1.8147    0.0000 H       1  UNL1        0.1084
    123 H          18.1254    0.3279    0.0000 H       1  UNL1        0.0683
    124 H          19.8574   -0.0521    0.0000 H       1  UNL1        0.0647
    125 H          17.9175    1.4479    0.0000 H       1  UNL1        0.1084
    126 H          11.7401   -5.5198    0.0000 H       1  UNL1        0.0725
    127 H          12.1359   -4.8280    0.0000 H       1  UNL1        0.0725
    128 H          19.7880   -1.3370    0.0000 H       1  UNL1        0.0584
    129 H          20.5851   -1.3370    0.0000 H       1  UNL1        0.0584
    130 H          12.7214    2.4479    0.0000 H       1  UNL1        0.0667
    131 H           9.2517   -3.6367    0.0000 H       1  UNL1        0.2100
    132 H           9.2464   -2.2567    0.0000 H       1  UNL1        0.2100
    133 H          10.9722   -0.6301    0.0000 H       1  UNL1        0.2102
    134 H          16.1855   -0.5521    0.0000 H       1  UNL1        0.2100
    135 H          18.9914   -2.1721    0.0000 H       1  UNL1        0.2100
    136 H          16.1855    0.8279    0.0000 H       1  UNL1        0.2102
    137 H          14.6809   -0.7073    0.0000 H       1  UNL1        0.0749
    138 H          16.7224    1.5179    0.0000 H       1  UNL1        0.0664
    139 H          11.8022   -0.7184    0.0000 H       1  UNL1        0.0691
    140 H          15.3195    3.9479    0.0000 H       1  UNL1        0.0628
    141 H          21.5895   -0.6721    0.0000 H       1  UNL1        0.2095
    142 H          16.7224    4.7579    0.0000 H       1  UNL1        0.0655
    143 H           6.0010    6.9479    0.0000 H       1  UNL1        0.0689
    144 H          10.9477    0.8373    0.0000 H       1  UNL1        0.2922
    145 H          18.4545    4.7579    0.0000 H       1  UNL1        0.2923
    146 H           4.0611    6.8279    0.0000 H       1  UNL1        0.0626
    147 H           9.2633   -6.6367    0.0000 H       1  UNL1        0.0689
    148 H          10.3434   -8.2526    0.0000 H       1  UNL1        0.0626
    149 H           3.1951    8.3279    0.0000 H       1  UNL1        0.0661
    150 H           6.0010    8.3279    0.0000 H       1  UNL1        0.0661
    151 H           8.0709   -7.3313    0.0000 H       1  UNL1        0.0661
    152 H           9.4832   -9.7559    0.0000 H       1  UNL1        0.0661
    153 H           4.0611   11.4479    0.0000 H       1  UNL1        0.2924
    154 H           6.9501   11.1379    0.0000 H       1  UNL1        0.0660
    155 H           6.3301   11.7579    0.0000 H       1  UNL1        0.0660
    156 H           5.7101   11.1379    0.0000 H       1  UNL1        0.0660
    157 H           1.6900   10.1749    0.0000 H       1  UNL1        0.0660
    158 H           1.4631    9.3279    0.0000 H       1  UNL1        0.0660
    159 H           2.3100    9.1010    0.0000 H       1  UNL1        0.0660
    160 H           6.3513  -10.5780    0.0000 H       1  UNL1        0.2924
    161 H           8.6448  -11.9861    0.0000 H       1  UNL1        0.0660
    162 H           9.4909  -11.7559    0.0000 H       1  UNL1        0.0660
    163 H           9.2607  -10.9098    0.0000 H       1  UNL1        0.0660
    164 H           5.1650   -7.9256    0.0000 H       1  UNL1        0.0660
    165 H           4.9414   -8.7734    0.0000 H       1  UNL1        0.0660
    166 H           5.7892   -8.9970    0.0000 H       1  UNL1        0.0660
@<TRIPOS>UNITY_ATOM_ATTR
22 1
charge 1
@<TRIPOS>BOND
     1     1    35    1
     2     1    44    1
     3     2    40    1
     4     2    43    1
     5     3    40    1
     6     3    45    1
     7     4    36    1
     8     4   110    1
     9     5    44    1
    10     5    57    1
    11     6    37    1
    12     6   113    1
    13     7    38    1
    14     7   116    1
    15     8    39    1
    16     8   117    1
    17     9    41    1
    18     9   118    1
    19    10    42    1
    20    10   119    1
    21    11    49    1
    22    11    53    1
    23    12    46    1
    24    12    68    1
    25    13    55    1
    26    13    56    1
    27    14    53    1
    28    14    64    1
    29    15    47    1
    30    15   131    1
    31    16    48    1
    32    16   132    1
    33    17    56    1
    34    17    66    1
    35    18    50    1
    36    18   133    1
    37    19    51    1
    38    19   134    1
    39    20    52    1
    40    20   135    1
    41    21    54    1
    42    21   136    1
    43    22    59   ar
    44    22    63   ar
    45    23    58    1
    46    23    76    1
    47    24    60    1
    48    24   141    1
    49    25    69    1
    50    25   144    1
    51    26    68    2
    52    27    73    1
    53    27   145    1
    54    28    76    2
    55    29    84    1
    56    29    92    1
    57    30    85    1
    58    30    93    1
    59    31    86    1
    60    31   153    1
    61    32    89    1
    62    32    94    1
    63    33    90    1
    64    33    95    1
    65    34    91    1
    66    34   160    1
    67    35    36    1
    68    35    45    1
    69    35    96    1
    70    36    37    1
    71    36    97    1
    72    37    41    1
    73    37    98    1
    74    38    39    1
    75    38    40    1
    76    38    99    1
    77    39    42    1
    78    39   100    1
    79    40   101    1
    80    41    44    1
    81    41   102    1
    82    42    43    1
    83    42   103    1
    84    43    46    1
    85    43   104    1
    86    44   105    1
    87    45   106    1
    88    45   107    1
    89    46   108    1
    90    46   109    1
    91    47    48    1
    92    47    49    1
    93    47   111    1
    94    48    50    1
    95    48   112    1
    96    49    58    1
    97    49   114    1
    98    50    53    1
    99    50   115    1
   100    51    52    1
   101    51    54    1
   102    51   120    1
   103    52    55    1
   104    52   121    1
   105    53   122    1
   106    54    56    1
   107    54   123    1
   108    55    60    1
   109    55   124    1
   110    56   125    1
   111    57    59   ar
   112    57    61   ar
   113    58   126    1
   114    58   127    1
   115    59    65    1
   116    60   128    1
   117    60   129    1
   118    61    62   ar
   119    61   130    1
   120    62    63   ar
   121    62    69   ar
   122    63    67   ar
   123    64    67   ar
   124    64    71   ar
   125    65    70   ar
   126    65    72   ar
   127    66    70   ar
   128    66    73   ar
   129    67   137    1
   130    68    75    1
   131    69    71   ar
   132    70   138    1
   133    71   139    1
   134    72    74   ar
   135    72   140    1
   136    73    74   ar
   137    74   142    1
   138    75    77    2
   139    75   143    1
   140    76    78    1
   141    77    79    1
   142    77   146    1
   143    78    80    2
   144    78   147    1
   145    79    81   ar
   146    79    82   ar
   147    80    83    1
   148    80   148    1
   149    81    85   ar
   150    81   149    1
   151    82    84   ar
   152    82   150    1
   153    83    87   ar
   154    83    88   ar
   155    84    86   ar
   156    85    86   ar
   157    87    90   ar
   158    87   151    1
   159    88    89   ar
   160    88   152    1
   161    89    91   ar
   162    90    91   ar
   163    92   154    1
   164    92   155    1
   165    92   156    1
   166    93   157    1
   167    93   158    1
   168    93   159    1
   169    94   161    1
   170    94   162    1
   171    94   163    1
   172    95   164    1
   173    95   165    1
   174    95   166    1
