@<TRIPOS>MOLECULE
IMPHY013298
 125 132 0 0 0
SMALL
GASTEIGER

@<TRIPOS>ATOM
      1 O           2.5620    5.1646    0.0000 O.3     1  UNL1       -0.3877
      2 O           2.5381    2.0887    0.0000 O.3     1  UNL1       -0.3875
      3 O           4.3272   -0.0390    0.0000 O.3     1  UNL1       -0.3479
      4 O           6.0343    3.1230    0.0000 O.2     1  UNL1       -0.3003
      5 O           5.4244    9.3490    0.0000 O.3     1  UNL1       -0.4571
      6 O           5.1932   -1.5390    0.0000 O.3     1  UNL1       -0.3456
      7 O           7.1448    8.8841    0.0000 O.2     1  UNL1       -0.2456
      8 O           7.7913   -0.0390    0.0000 O.3     1  UNL1       -0.3770
      9 O           7.7913   -2.0390    0.0000 O.3     1  UNL1       -0.3403
     10 O           6.9253   -3.5390    0.0000 O.3     1  UNL1       -0.3405
     11 O           9.5234   -3.0390    0.0000 O.3     1  UNL1       -0.3841
     12 O           9.5234   -5.0390    0.0000 O.3     1  UNL1       -0.3864
     13 O           7.7913   -6.0390    0.0000 O.3     1  UNL1       -0.3865
     14 O           6.0593   -6.0390    0.0000 O.3     1  UNL1       -0.3460
     15 O           4.3272   -6.0390    0.0000 O.3     1  UNL1       -0.3405
     16 O           6.0593   -8.0390    0.0000 O.3     1  UNL1       -0.3841
     17 O           4.3272   -9.0390    0.0000 O.3     1  UNL1       -0.3864
     18 O           2.5952   -8.0390    0.0000 O.3     1  UNL1       -0.3865
     19 O           2.5952   -5.0390    0.0000 O.3     1  UNL1       -0.3924
     20 C           3.4300    5.6612    0.0000 C.3     1  UNL1        0.0751
     21 C           3.4262    4.6612    0.0000 C.3     1  UNL1       -0.0077
     22 C           4.2980    6.1579    0.0000 C.3     1  UNL1        0.0036
     23 C           4.2902    4.1579    0.0000 C.3     1  UNL1       -0.0208
     24 C           4.3023    3.1164    0.0000 C.3     1  UNL1        0.0579
     25 C           3.4022    2.5921    0.0000 C.3     1  UNL1        0.0807
     26 C           4.0925    7.1305    0.0000 C.3     1  UNL1       -0.0081
     27 C           5.1620    5.6546    0.0000 C.3     1  UNL1       -0.0442
     28 C           5.1582    4.6546    0.0000 C.3     1  UNL1       -0.0483
     29 C           2.6956    6.3312    0.0000 C.3     1  UNL1       -0.0226
     30 C           2.5142    4.1579    0.0000 C.3     1  UNL1       -0.0447
     31 C           2.5022    3.1164    0.0000 C.3     1  UNL1       -0.0226
     32 C           3.1042    7.2374    0.0000 C.3     1  UNL1       -0.0432
     33 C           5.2522    2.5921    0.0000 C.3     1  UNL1       -0.0357
     34 C           5.1659    6.6546    0.0000 C.3     1  UNL1       -0.0564
     35 C           3.3897    1.5071    0.0000 C.3     1  UNL1        0.0034
     36 C           5.2647    1.5071    0.0000 C.3     1  UNL1       -0.0254
     37 C           4.3272    0.9610    0.0000 C.3     1  UNL1        0.0643
     38 C           5.1664    3.6197    0.0000 C.2     1  UNL1        0.1294
     39 C           4.7632    7.8722    0.0000 C.2     1  UNL1       -0.0222
     40 C           4.5574    8.8508    0.0000 C.3     1  UNL1        0.1147
     41 C           5.7575    7.7656    0.0000 C.2     1  UNL1        0.0252
     42 C           6.1662    8.6783    0.0000 C.2     1  UNL1        0.3323
     43 C           5.1932   -0.5390    0.0000 C.3     1  UNL1        0.1624
     44 C           6.0593   -0.0390    0.0000 C.3     1  UNL1        0.0272
     45 C           6.9253   -0.5390    0.0000 C.3     1  UNL1        0.0915
     46 C           6.0593   -2.0390    0.0000 C.3     1  UNL1        0.0875
     47 C           6.9253   -1.5390    0.0000 C.3     1  UNL1        0.1138
     48 C           6.0593   -3.0390    0.0000 C.3     1  UNL1       -0.0361
     49 C           7.7913   -3.0390    0.0000 C.3     1  UNL1        0.1884
     50 C           7.7913    0.9610    0.0000 C.3     1  UNL1        0.0369
     51 C           8.6573   -3.5390    0.0000 C.3     1  UNL1        0.1341
     52 C           8.6573   -4.5390    0.0000 C.3     1  UNL1        0.1141
     53 C           6.9253   -4.5390    0.0000 C.3     1  UNL1        0.1134
     54 C           7.7913   -5.0390    0.0000 C.3     1  UNL1        0.1119
     55 C           6.0593   -5.0390    0.0000 C.3     1  UNL1        0.0796
     56 C           5.1932   -6.5390    0.0000 C.3     1  UNL1        0.1880
     57 C           5.1932   -7.5390    0.0000 C.3     1  UNL1        0.1341
     58 C           4.3272   -8.0390    0.0000 C.3     1  UNL1        0.1141
     59 C           3.4612   -7.5390    0.0000 C.3     1  UNL1        0.1119
     60 C           3.4612   -6.5390    0.0000 C.3     1  UNL1        0.1130
     61 C           2.5952   -6.0390    0.0000 C.3     1  UNL1        0.0730
     62 H           4.1639    5.0834    0.0000 H       1  UNL1        0.0332
     63 H           5.0280    3.7358    0.0000 H       1  UNL1        0.0315
     64 H           3.8718    7.7099    0.0000 H       1  UNL1        0.0353
     65 H           5.7722    5.5446    0.0000 H       1  UNL1        0.0272
     66 H           5.3763    6.2364    0.0000 H       1  UNL1        0.0272
     67 H           5.3680    4.0712    0.0000 H       1  UNL1        0.0269
     68 H           5.7692    4.7599    0.0000 H       1  UNL1        0.0269
     69 H           2.1603    6.6440    0.0000 H       1  UNL1        0.0293
     70 H           2.3282    5.8317    0.0000 H       1  UNL1        0.0293
     71 H           2.3119    4.7440    0.0000 H       1  UNL1        0.0270
     72 H           1.9022    4.0589    0.0000 H       1  UNL1        0.0270
     73 H           1.8926    3.2295    0.0000 H       1  UNL1        0.0293
     74 H           2.2864    2.5351    0.0000 H       1  UNL1        0.0293
     75 H           3.2352    7.8434    0.0000 H       1  UNL1        0.0272
     76 H           2.5153    7.4314    0.0000 H       1  UNL1        0.0272
     77 H           5.8642    2.4930    0.0000 H       1  UNL1        0.0276
     78 H           5.4545    3.1781    0.0000 H       1  UNL1        0.0276
     79 H           5.4738    6.1164    0.0000 H       1  UNL1        0.0236
     80 H           5.7040    6.9625    0.0000 H       1  UNL1        0.0236
     81 H           4.8580    7.1927    0.0000 H       1  UNL1        0.0236
     82 H           2.7801    1.6203    0.0000 H       1  UNL1        0.0318
     83 H           3.1739    0.9259    0.0000 H       1  UNL1        0.0318
     84 H           5.4805    0.9259    0.0000 H       1  UNL1        0.0290
     85 H           5.8743    1.6203    0.0000 H       1  UNL1        0.0290
     86 H           3.7897    0.6521    0.0000 H       1  UNL1        0.0598
     87 H           2.0263    5.4766    0.0000 H       1  UNL1        0.2102
     88 H           5.7021    3.9318    0.0000 H       1  UNL1        0.1033
     89 H           2.0000    2.3966    0.0000 H       1  UNL1        0.2102
     90 H           4.3064    9.4178    0.0000 H       1  UNL1        0.0746
     91 H           3.9673    8.6605    0.0000 H       1  UNL1        0.0746
     92 H           6.0664    7.2280    0.0000 H       1  UNL1        0.0689
     93 H           5.1932    0.0810    0.0000 H       1  UNL1        0.0910
     94 H           6.4578    0.4360    0.0000 H       1  UNL1        0.0340
     95 H           5.6607    0.4360    0.0000 H       1  UNL1        0.0340
     96 H           6.9253    0.0810    0.0000 H       1  UNL1        0.0624
     97 H           5.5223   -2.3490    0.0000 H       1  UNL1        0.0621
     98 H           6.9253   -2.1590    0.0000 H       1  UNL1        0.0649
     99 H           5.4393   -3.0390    0.0000 H       1  UNL1        0.0255
    100 H           6.0593   -3.6590    0.0000 H       1  UNL1        0.0255
    101 H           6.6793   -3.0390    0.0000 H       1  UNL1        0.0255
    102 H           8.3282   -2.7290    0.0000 H       1  UNL1        0.0938
    103 H           8.4113    0.9610    0.0000 H       1  UNL1        0.0524
    104 H           7.7913    1.5810    0.0000 H       1  UNL1        0.0524
    105 H           7.1713    0.9610    0.0000 H       1  UNL1        0.0524
    106 H           9.1943   -3.8490    0.0000 H       1  UNL1        0.0671
    107 H           9.1943   -4.2290    0.0000 H       1  UNL1        0.0648
    108 H           6.3884   -4.2290    0.0000 H       1  UNL1        0.0647
    109 H           8.3282   -5.3490    0.0000 H       1  UNL1        0.0647
    110 H           9.5234   -2.4190    0.0000 H       1  UNL1        0.2101
    111 H           5.8472   -4.4564    0.0000 H       1  UNL1        0.0587
    112 H           5.4487   -5.1466    0.0000 H       1  UNL1        0.0587
    113 H          10.0603   -4.7290    0.0000 H       1  UNL1        0.2100
    114 H           8.3282   -6.3490    0.0000 H       1  UNL1        0.2100
    115 H           5.7302   -6.8490    0.0000 H       1  UNL1        0.0937
    116 H           5.1932   -8.1590    0.0000 H       1  UNL1        0.0671
    117 H           3.7903   -8.3490    0.0000 H       1  UNL1        0.0648
    118 H           2.9242   -7.2290    0.0000 H       1  UNL1        0.0647
    119 H           3.4612   -5.9190    0.0000 H       1  UNL1        0.0647
    120 H           1.9846   -5.9313    0.0000 H       1  UNL1        0.0584
    121 H           2.3831   -6.6216    0.0000 H       1  UNL1        0.0584
    122 H           6.5962   -7.7290    0.0000 H       1  UNL1        0.2101
    123 H           3.7903   -9.3490    0.0000 H       1  UNL1        0.2100
    124 H           2.0582   -7.7290    0.0000 H       1  UNL1        0.2100
    125 H           2.0582   -4.7290    0.0000 H       1  UNL1        0.2095
@<TRIPOS>BOND
     1    20     1    1
     2     1    87    1
     3    25     2    1
     4     2    89    1
     5    37     3    1
     6    43     3    1
     7     4    38    2
     8     5    40    1
     9     5    42    1
    10     6    43    1
    11     6    46    1
    12     7    42    2
    13    45     8    1
    14     8    50    1
    15    47     9    1
    16    49     9    1
    17    10    49    1
    18    10    53    1
    19    51    11    1
    20    11   110    1
    21    52    12    1
    22    12   113    1
    23    54    13    1
    24    13   114    1
    25    14    55    1
    26    56    14    1
    27    15    56    1
    28    15    60    1
    29    57    16    1
    30    16   122    1
    31    58    17    1
    32    17   123    1
    33    59    18    1
    34    18   124    1
    35    19    61    1
    36    19   125    1
    37    20    21    1
    38    20    22    1
    39    20    29    1
    40    21    23    1
    41    21    30    1
    42    21    62    1
    43    22    26    1
    44    22    27    1
    45    22    34    1
    46    23    24    1
    47    23    28    1
    48    23    63    1
    49    24    25    1
    50    24    33    1
    51    24    38    1
    52    25    31    1
    53    25    35    1
    54    26    32    1
    55    26    39    1
    56    26    64    1
    57    27    28    1
    58    27    65    1
    59    27    66    1
    60    28    67    1
    61    28    68    1
    62    29    32    1
    63    29    69    1
    64    29    70    1
    65    30    31    1
    66    30    71    1
    67    30    72    1
    68    31    73    1
    69    31    74    1
    70    32    75    1
    71    32    76    1
    72    33    36    1
    73    33    77    1
    74    33    78    1
    75    34    79    1
    76    34    80    1
    77    34    81    1
    78    35    37    1
    79    35    82    1
    80    35    83    1
    81    36    37    1
    82    36    84    1
    83    36    85    1
    84    37    86    1
    85    38    88    1
    86    39    40    1
    87    39    41    2
    88    40    90    1
    89    40    91    1
    90    41    42    1
    91    41    92    1
    92    43    44    1
    93    43    93    1
    94    44    45    1
    95    44    94    1
    96    44    95    1
    97    45    47    1
    98    45    96    1
    99    46    47    1
   100    46    48    1
   101    46    97    1
   102    47    98    1
   103    48    99    1
   104    48   100    1
   105    48   101    1
   106    49    51    1
   107    49   102    1
   108    50   103    1
   109    50   104    1
   110    50   105    1
   111    51    52    1
   112    51   106    1
   113    52    54    1
   114    52   107    1
   115    53    54    1
   116    53    55    1
   117    53   108    1
   118    54   109    1
   119    55   111    1
   120    55   112    1
   121    56    57    1
   122    56   115    1
   123    57    58    1
   124    57   116    1
   125    58    59    1
   126    58   117    1
   127    59    60    1
   128    59   118    1
   129    60    61    1
   130    60   119    1
   131    61   120    1
   132    61   121    1
