@<TRIPOS>MOLECULE
IMPHY006528
 38 41 0 0 0
SMALL
GASTEIGER

@<TRIPOS>ATOM
      1 O           2.0000    0.8937    0.0000 O.2     1  UNL1       -0.3007
      2 C           6.2799    0.5853    0.0000 C.3     1  UNL1       -0.0199
      3 C           5.7799    1.4514    0.0000 C.3     1  UNL1       -0.0281
      4 C           6.7799    1.4514    0.0000 C.3     1  UNL1       -0.0310
      5 C           6.1885   -1.1099    0.0000 C.3     1  UNL1       -0.0230
      6 C           6.2799   -0.0785    0.0000 C.3     1  UNL1       -0.0315
      7 C           5.4752    0.5052    0.0000 C.3     1  UNL1       -0.0306
      8 C           7.0846    0.5052    0.0000 C.3     1  UNL1       -0.0458
      9 C           4.5232    0.0978    0.0000 C.3     1  UNL1       -0.0287
     10 C           5.2462   -1.5391    0.0000 C.3     1  UNL1       -0.0466
     11 C           5.6372   -0.1808    0.0000 C.3     1  UNL1       -0.0585
     12 C           4.4079   -0.9312    0.0000 C.3     1  UNL1       -0.0488
     13 C           7.0047   -1.6876    0.0000 C.3     1  UNL1       -0.0588
     14 C           3.7205    0.6942    0.0000 C.3     1  UNL1        0.0147
     15 C           3.8357    1.6876    0.0000 C.3     1  UNL1       -0.0557
     16 C           2.8027    0.2973    0.0000 C.2     1  UNL1        0.1234
     17 H           5.2794    2.1384    0.0000 H       1  UNL1        0.0312
     18 H           7.2804    2.1384    0.0000 H       1  UNL1        0.0309
     19 H           7.0193   -0.4978    0.0000 H       1  UNL1        0.0309
     20 H           4.8469    1.0777    0.0000 H       1  UNL1        0.0309
     21 H           7.3939   -0.0322    0.0000 H       1  UNL1        0.0271
     22 H           7.6516    0.7562    0.0000 H       1  UNL1        0.0271
     23 H           3.9546   -0.1494    0.0000 H       1  UNL1        0.0310
     24 H           4.8017   -1.9714    0.0000 H       1  UNL1        0.0271
     25 H           5.5959   -2.0510    0.0000 H       1  UNL1        0.0271
     26 H           5.1622    0.2177    0.0000 H       1  UNL1        0.0235
     27 H           5.2388   -0.6558    0.0000 H       1  UNL1        0.0235
     28 H           6.1122   -0.5792    0.0000 H       1  UNL1        0.0235
     29 H           3.8127   -0.7578    0.0000 H       1  UNL1        0.0268
     30 H           4.1352   -1.4880    0.0000 H       1  UNL1        0.0268
     31 H           6.6466   -2.1936    0.0000 H       1  UNL1        0.0235
     32 H           7.5108   -2.0457    0.0000 H       1  UNL1        0.0235
     33 H           7.3629   -1.1815    0.0000 H       1  UNL1        0.0235
     34 H           3.0382    1.2012    0.0000 H       1  UNL1        0.0375
     35 H           4.4516    1.6162    0.0000 H       1  UNL1        0.0236
     36 H           3.9071    2.3034    0.0000 H       1  UNL1        0.0236
     37 H           3.2198    1.7590    0.0000 H       1  UNL1        0.0236
     38 H           2.7313   -0.3186    0.0000 H       1  UNL1        0.1029
@<TRIPOS>BOND
     1     1    16    2
     2     2     3    1
     3     2     4    1
     4     2     5    1
     5     2    11    1
     6     3     4    1
     7     3     7    1
     8     3    17    1
     9     4     8    1
    10     4    18    1
    11     5     6    1
    12     5    10    1
    13     5    13    1
    14     6     7    1
    15     6     8    1
    16     6    19    1
    17     7     9    1
    18     7    20    1
    19     8    21    1
    20     8    22    1
    21     9    12    1
    22     9    14    1
    23     9    23    1
    24    10    12    1
    25    10    24    1
    26    10    25    1
    27    11    26    1
    28    11    27    1
    29    11    28    1
    30    12    29    1
    31    12    30    1
    32    13    31    1
    33    13    32    1
    34    13    33    1
    35    14    15    1
    36    14    16    1
    37    14    34    1
    38    15    35    1
    39    15    36    1
    40    15    37    1
    41    16    38    1
