@<TRIPOS>MOLECULE
IMPHY014460
 63 67 0 0 0
SMALL
GASTEIGER

@<TRIPOS>ATOM
      1 O           9.7082   -1.2333    0.0000 O.3     1  UNL1       -0.3580
      2 O           9.0532    1.4484    0.0000 O.3     1  UNL1       -0.4549
      3 O           5.9670   -0.7970    0.0000 O.2     1  UNL1       -0.4709
      4 O           6.8671   -2.3212    0.0000 O.3     1  UNL1       -0.3095
      5 O           8.5136   -2.8373    0.0000 O.3     1  UNL1       -0.3921
      6 O           5.1350   -2.3212    0.0000 O.3     1  UNL1       -0.3404
      7 O          10.6942    0.8941    0.0000 O.2     1  UNL1       -0.2456
      8 O           6.8671   -4.3212    0.0000 O.3     1  UNL1       -0.3841
      9 O           5.1350   -5.3212    0.0000 O.3     1  UNL1       -0.3864
     10 O           3.4030   -4.3212    0.0000 O.3     1  UNL1       -0.3865
     11 O           2.5369   -2.8212    0.0000 O.3     1  UNL1       -0.3924
     12 C           8.7145   -1.1170    0.0000 C.3     1  UNL1        0.1316
     13 C           9.3116   -0.3148    0.0000 C.3     1  UNL1        0.1284
     14 C           7.7671   -0.7970    0.0000 C.3     1  UNL1        0.0652
     15 C           7.7787    0.2030    0.0000 C.3     1  UNL1        0.0312
     16 C           8.7333    0.5010    0.0000 C.3     1  UNL1        0.1390
     17 C           8.1174   -1.9191    0.0000 C.3     1  UNL1        0.0763
     18 C           6.8671   -1.3212    0.0000 C.3     1  UNL1        0.2097
     19 C           6.8910    0.7479    0.0000 C.2     1  UNL1       -0.0423
     20 C           5.9790    0.2446    0.0000 C.2     1  UNL1        0.0843
     21 C           6.0010   -2.8212    0.0000 C.3     1  UNL1        0.1918
     22 C          10.0337    1.6450    0.0000 C.2     1  UNL1        0.3323
     23 C           6.0010   -3.8212    0.0000 C.3     1  UNL1        0.1342
     24 C           5.1350   -4.3212    0.0000 C.3     1  UNL1        0.1141
     25 C           4.2690   -2.8212    0.0000 C.3     1  UNL1        0.1130
     26 C           4.2690   -3.8212    0.0000 C.3     1  UNL1        0.1119
     27 C          10.3537    2.5924    0.0000 C.2     1  UNL1        0.0231
     28 C           3.4030   -2.3212    0.0000 C.3     1  UNL1        0.0730
     29 C          11.3342    2.7890    0.0000 C.2     1  UNL1       -0.0478
     30 C          11.6542    3.7364    0.0000 C.ar    1  UNL1       -0.0248
     31 C          12.6347    3.9330    0.0000 C.ar    1  UNL1       -0.0546
     32 C          10.9937    4.4872    0.0000 C.ar    1  UNL1       -0.0546
     33 C          12.9547    4.8804    0.0000 C.ar    1  UNL1       -0.0612
     34 C          11.3137    5.4347    0.0000 C.ar    1  UNL1       -0.0612
     35 C          12.2942    5.6312    0.0000 C.ar    1  UNL1       -0.0617
     36 H          10.0526    0.1018    0.0000 H       1  UNL1        0.0663
     37 H           7.8527   -1.6426    0.0000 H       1  UNL1        0.0398
     38 H           7.8838    1.0465    0.0000 H       1  UNL1        0.0386
     39 H           9.3467    0.5909    0.0000 H       1  UNL1        0.0767
     40 H           7.6919   -1.4682    0.0000 H       1  UNL1        0.0587
     41 H           7.5995   -2.2598    0.0000 H       1  UNL1        0.0587
     42 H           7.4046   -1.6302    0.0000 H       1  UNL1        0.1060
     43 H           6.9053    1.3678    0.0000 H       1  UNL1        0.0606
     44 H           5.4470    0.5628    0.0000 H       1  UNL1        0.1021
     45 H           9.1294   -2.9092    0.0000 H       1  UNL1        0.2095
     46 H           6.0010   -2.2012    0.0000 H       1  UNL1        0.0939
     47 H           6.0010   -4.4412    0.0000 H       1  UNL1        0.0671
     48 H           4.5981   -4.6312    0.0000 H       1  UNL1        0.0648
     49 H           4.2690   -2.2012    0.0000 H       1  UNL1        0.0647
     50 H           4.2690   -4.4412    0.0000 H       1  UNL1        0.0647
     51 H           9.9442    3.0579    0.0000 H       1  UNL1        0.0689
     52 H           6.8671   -4.9412    0.0000 H       1  UNL1        0.2101
     53 H           3.8015   -1.8463    0.0000 H       1  UNL1        0.0584
     54 H           3.0044   -1.8463    0.0000 H       1  UNL1        0.0584
     55 H           4.5981   -5.6312    0.0000 H       1  UNL1        0.2100
     56 H           3.4030   -4.9412    0.0000 H       1  UNL1        0.2100
     57 H          11.7437    2.3235    0.0000 H       1  UNL1        0.0626
     58 H           2.0000   -2.5112    0.0000 H       1  UNL1        0.2095
     59 H          13.0442    3.4675    0.0000 H       1  UNL1        0.0623
     60 H          10.3858    4.3654    0.0000 H       1  UNL1        0.0623
     61 H          13.5626    5.0023    0.0000 H       1  UNL1        0.0618
     62 H          10.9042    5.9002    0.0000 H       1  UNL1        0.0618
     63 H          12.4926    6.2186    0.0000 H       1  UNL1        0.0618
@<TRIPOS>BOND
     1     1    12    1
     2     1    13    1
     3    16     2    1
     4     2    22    1
     5     3    18    1
     6     3    20    1
     7    18     4    1
     8    21     4    1
     9     5    17    1
    10     5    45    1
    11     6    21    1
    12     6    25    1
    13     7    22    2
    14    23     8    1
    15     8    52    1
    16    24     9    1
    17     9    55    1
    18    26    10    1
    19    10    56    1
    20    11    28    1
    21    11    58    1
    22    12    13    1
    23    12    14    1
    24    12    17    1
    25    13    16    1
    26    13    36    1
    27    14    15    1
    28    14    18    1
    29    14    37    1
    30    15    16    1
    31    15    19    1
    32    15    38    1
    33    16    39    1
    34    17    40    1
    35    17    41    1
    36    18    42    1
    37    19    20    2
    38    19    43    1
    39    20    44    1
    40    21    23    1
    41    21    46    1
    42    22    27    1
    43    23    24    1
    44    23    47    1
    45    24    26    1
    46    24    48    1
    47    25    26    1
    48    25    28    1
    49    25    49    1
    50    26    50    1
    51    27    29    2
    52    27    51    1
    53    28    53    1
    54    28    54    1
    55    29    30    1
    56    29    57    1
    57    30    31   ar
    58    30    32   ar
    59    31    33   ar
    60    31    59    1
    61    32    34   ar
    62    32    60    1
    63    33    35   ar
    64    33    61    1
    65    34    35   ar
    66    34    62    1
    67    35    63    1
