@<TRIPOS>MOLECULE
IMPHY000681
 72 74 0 0 0
SMALL
GASTEIGER

@<TRIPOS>ATOM
      1 O           3.7320   -1.0259    0.0000 O.3     1  UNL1       -0.4598
      2 O           8.1621    1.2330    0.0000 O.3     1  UNL1       -0.4598
      3 O           5.3342   -0.3029    0.0000 O.2     1  UNL1       -0.2508
      4 O           7.4266    2.7244    0.0000 O.2     1  UNL1       -0.2508
      5 N           2.8660    1.4741    0.0000 N.3     1  UNL1       -0.3074
      6 N           9.0281   -1.2670    0.0000 N.3     1  UNL1       -0.3074
      7 C           3.7320    1.9741    0.0000 C.3     1  UNL1        0.0081
      8 C           8.1621   -1.7670    0.0000 C.3     1  UNL1        0.0081
      9 C           2.8660    0.4741    0.0000 C.3     1  UNL1        0.0422
     10 C           9.0281   -0.2670    0.0000 C.3     1  UNL1        0.0422
     11 C           3.7320   -0.0259    0.0000 C.3     1  UNL1        0.1181
     12 C           8.1621    0.2330    0.0000 C.3     1  UNL1        0.1181
     13 C           4.5981    1.4741    0.0000 C.3     1  UNL1       -0.0341
     14 C           7.2864   -1.2704    0.0000 C.3     1  UNL1       -0.0341
     15 C           4.5981    0.4741    0.0000 C.3     1  UNL1       -0.0128
     16 C           7.2864   -0.2637    0.0000 C.3     1  UNL1       -0.0128
     17 C           3.7320    2.9741    0.0000 C.3     1  UNL1       -0.0375
     18 C           8.1621   -2.7670    0.0000 C.3     1  UNL1       -0.0375
     19 C           4.5981    3.4741    0.0000 C.3     1  UNL1       -0.0516
     20 C           7.4550   -3.4741    0.0000 C.3     1  UNL1       -0.0516
     21 C           2.0000   -0.0259    0.0000 C.3     1  UNL1       -0.0462
     22 C           9.8941    0.2330    0.0000 C.3     1  UNL1       -0.0462
     23 C           5.4641    2.9741    0.0000 C.3     1  UNL1       -0.0525
     24 C           6.4890   -3.2153    0.0000 C.3     1  UNL1       -0.0525
     25 C           5.4641    1.9741    0.0000 C.3     1  UNL1       -0.0430
     26 C           6.2302   -2.2494    0.0000 C.3     1  UNL1       -0.0430
     27 C           6.3301    1.4741    0.0000 C.3     1  UNL1        0.0449
     28 C           5.2643   -1.9906    0.0000 C.3     1  UNL1        0.0449
     29 C           4.7643   -1.1246    0.0000 C.2     1  UNL1        0.3074
     30 C           7.2960    1.7330    0.0000 C.2     1  UNL1        0.3074
     31 H           2.9959    2.3991    0.0000 H       1  UNL1        0.0460
     32 H           8.8982   -2.1920    0.0000 H       1  UNL1        0.0460
     33 H           2.3291    0.7841    0.0000 H       1  UNL1        0.0494
     34 H           9.5650   -0.5770    0.0000 H       1  UNL1        0.0494
     35 H           2.9959   -0.4509    0.0000 H       1  UNL1        0.0749
     36 H           8.9014    0.6523    0.0000 H       1  UNL1        0.0749
     37 H           5.2087    1.3665    0.0000 H       1  UNL1        0.0281
     38 H           4.8101    2.0568    0.0000 H       1  UNL1        0.0281
     39 H           6.6755   -1.1643    0.0000 H       1  UNL1        0.0281
     40 H           7.0773   -1.8541    0.0000 H       1  UNL1        0.0281
     41 H           4.8101   -0.1085    0.0000 H       1  UNL1        0.0302
     42 H           5.2087    0.5818    0.0000 H       1  UNL1        0.0302
     43 H           7.0773    0.3200    0.0000 H       1  UNL1        0.0302
     44 H           6.6755   -0.3698    0.0000 H       1  UNL1        0.0302
     45 H           2.3291    1.7841    0.0000 H       1  UNL1        0.1226
     46 H           9.5650   -1.5770    0.0000 H       1  UNL1        0.1226
     47 H           3.5200    3.5568    0.0000 H       1  UNL1        0.0280
     48 H           3.1215    2.8665    0.0000 H       1  UNL1        0.0280
     49 H           8.4721   -3.3040    0.0000 H       1  UNL1        0.0280
     50 H           8.7610   -2.6066    0.0000 H       1  UNL1        0.0280
     51 H           4.9966    3.9491    0.0000 H       1  UNL1        0.0266
     52 H           4.1996    3.9491    0.0000 H       1  UNL1        0.0266
     53 H           7.1930   -4.0360    0.0000 H       1  UNL1        0.0266
     54 H           7.9628   -3.8298    0.0000 H       1  UNL1        0.0266
     55 H           1.6900    0.5111    0.0000 H       1  UNL1        0.0246
     56 H           1.4631   -0.3359    0.0000 H       1  UNL1        0.0246
     57 H           2.3100   -0.5628    0.0000 H       1  UNL1        0.0246
     58 H          10.2041   -0.3040    0.0000 H       1  UNL1        0.0246
     59 H          10.4311    0.5430    0.0000 H       1  UNL1        0.0246
     60 H           9.5841    0.7699    0.0000 H       1  UNL1        0.0246
     61 H           6.0747    2.8665    0.0000 H       1  UNL1        0.0265
     62 H           5.6762    3.5568    0.0000 H       1  UNL1        0.0265
     63 H           5.8714   -3.2694    0.0000 H       1  UNL1        0.0265
     64 H           6.4350   -3.8330    0.0000 H       1  UNL1        0.0265
     65 H           4.8535    2.0818    0.0000 H       1  UNL1        0.0270
     66 H           5.2520    1.3915    0.0000 H       1  UNL1        0.0270
     67 H           6.8479   -2.1954    0.0000 H       1  UNL1        0.0270
     68 H           6.2843   -1.6318    0.0000 H       1  UNL1        0.0270
     69 H           5.8917    1.0357    0.0000 H       1  UNL1        0.0377
     70 H           6.6401    0.9372    0.0000 H       1  UNL1        0.0377
     71 H           4.6654   -2.1510    0.0000 H       1  UNL1        0.0377
     72 H           5.2643   -2.6106    0.0000 H       1  UNL1        0.0377
@<TRIPOS>BOND
     1     1    11    1
     2     1    29    1
     3     2    12    1
     4     2    30    1
     5     3    29    2
     6     4    30    2
     7     5     7    1
     8     5     9    1
     9     5    45    1
    10     6     8    1
    11     6    10    1
    12     6    46    1
    13     7    13    1
    14     7    17    1
    15     7    31    1
    16     8    14    1
    17     8    18    1
    18     8    32    1
    19     9    11    1
    20     9    21    1
    21     9    33    1
    22    10    12    1
    23    10    22    1
    24    10    34    1
    25    11    15    1
    26    11    35    1
    27    12    16    1
    28    12    36    1
    29    13    15    1
    30    13    37    1
    31    13    38    1
    32    14    16    1
    33    14    39    1
    34    14    40    1
    35    15    41    1
    36    15    42    1
    37    16    43    1
    38    16    44    1
    39    17    19    1
    40    17    47    1
    41    17    48    1
    42    18    20    1
    43    18    49    1
    44    18    50    1
    45    19    23    1
    46    19    51    1
    47    19    52    1
    48    20    24    1
    49    20    53    1
    50    20    54    1
    51    21    55    1
    52    21    56    1
    53    21    57    1
    54    22    58    1
    55    22    59    1
    56    22    60    1
    57    23    25    1
    58    23    61    1
    59    23    62    1
    60    24    26    1
    61    24    63    1
    62    24    64    1
    63    25    27    1
    64    25    65    1
    65    25    66    1
    66    26    28    1
    67    26    67    1
    68    26    68    1
    69    27    30    1
    70    27    69    1
    71    27    70    1
    72    28    29    1
    73    28    71    1
    74    28    72    1
