@<TRIPOS>MOLECULE
IMPHY010102
 44 48 0 0 0
SMALL
GASTEIGER

@<TRIPOS>ATOM
      1 O           2.2314   -0.1372    0.0000 O.3     1  UNL1       -0.4811
      2 O           6.2030    0.7855    0.0000 O.3     1  UNL1       -0.3856
      3 O           2.0000   -2.5922    0.0000 O.3     1  UNL1       -0.3841
      4 O           2.0000    2.2122    0.0000 O.3     1  UNL1       -0.4914
      5 N           6.1607   -1.1411    0.0000 N.3     1  UNL1       -0.2990
      6 C           3.6897   -0.6655    0.0000 C.3     1  UNL1        0.0482
      7 C           4.5133   -1.1411    0.0000 C.3     1  UNL1        0.0088
      8 C           5.3370   -0.6655    0.0000 C.3     1  UNL1        0.0473
      9 C           2.8660   -1.1411    0.0000 C.3     1  UNL1        0.1399
     10 C           4.2392    0.0319    0.0000 C.3     1  UNL1       -0.0263
     11 C           3.6897    0.2855    0.0000 C.ar    1  UNL1        0.0140
     12 C           5.3370    0.2855    0.0000 C.3     1  UNL1        0.0966
     13 C           5.5918    0.0319    0.0000 C.3     1  UNL1       -0.0001
     14 C           4.5133    0.7611    0.0000 C.ar    1  UNL1       -0.0101
     15 C           2.8660   -2.0922    0.0000 C.3     1  UNL1        0.1110
     16 C           4.5133   -2.0922    0.0000 C.2     1  UNL1       -0.0798
     17 C           2.8660    0.7611    0.0000 C.ar    1  UNL1        0.1666
     18 C           3.6897   -2.5677    0.0000 C.2     1  UNL1       -0.0559
     19 C           4.5133    1.7122    0.0000 C.ar    1  UNL1       -0.0521
     20 C           6.8418   -1.8732    0.0000 C.3     1  UNL1       -0.0124
     21 C           2.8660    1.7122    0.0000 C.ar    1  UNL1        0.1618
     22 C           3.6897    2.1877    0.0000 C.ar    1  UNL1       -0.0159
     23 C           2.0000    3.2122    0.0000 C.3     1  UNL1        0.0790
     24 H           5.0597   -1.7922    0.0000 H       1  UNL1        0.0369
     25 H           5.6284   -1.4640    0.0000 H       1  UNL1        0.0497
     26 H           2.0496   -1.3775    0.0000 H       1  UNL1        0.0772
     27 H           4.3760    0.6366    0.0000 H       1  UNL1        0.0287
     28 H           3.6795    0.2987    0.0000 H       1  UNL1        0.0287
     29 H           5.8739   -0.0245    0.0000 H       1  UNL1        0.0659
     30 H           6.1840    0.2157    0.0000 H       1  UNL1        0.0427
     31 H           5.4989    0.6449    0.0000 H       1  UNL1        0.0427
     32 H           2.8660   -2.7122    0.0000 H       1  UNL1        0.0675
     33 H           5.0503   -2.4021    0.0000 H       1  UNL1        0.0573
     34 H           3.6897   -3.1877    0.0000 H       1  UNL1        0.0596
     35 H           5.0503    2.0222    0.0000 H       1  UNL1        0.0622
     36 H           6.3879   -2.2955    0.0000 H       1  UNL1        0.0391
     37 H           7.2641   -2.3271    0.0000 H       1  UNL1        0.0391
     38 H           7.2957   -1.4509    0.0000 H       1  UNL1        0.0391
     39 H           6.2030    1.4055    0.0000 H       1  UNL1        0.2103
     40 H           3.6897    2.8077    0.0000 H       1  UNL1        0.0655
     41 H           2.0000   -3.2122    0.0000 H       1  UNL1        0.2104
     42 H           2.6200    3.2122    0.0000 H       1  UNL1        0.0660
     43 H           2.0000    3.8322    0.0000 H       1  UNL1        0.0660
     44 H           1.3800    3.2122    0.0000 H       1  UNL1        0.0660
@<TRIPOS>BOND
     1     1     9    1
     2     1    17    1
     3     2    12    1
     4     2    39    1
     5    15     3    1
     6     3    41    1
     7     4    21    1
     8     4    23    1
     9     5     8    1
    10     5    13    1
    11     5    20    1
    12     6     7    1
    13     6     9    1
    14     6    10    1
    15     6    11    1
    16     7     8    1
    17     7    16    1
    18     7    24    1
    19     8    12    1
    20     8    25    1
    21     9    15    1
    22     9    26    1
    23    10    13    1
    24    10    27    1
    25    10    28    1
    26    11    14   ar
    27    11    17   ar
    28    12    14    1
    29    12    29    1
    30    13    30    1
    31    13    31    1
    32    14    19   ar
    33    15    18    1
    34    15    32    1
    35    16    18    2
    36    16    33    1
    37    17    21   ar
    38    18    34    1
    39    19    22   ar
    40    19    35    1
    41    20    36    1
    42    20    37    1
    43    20    38    1
    44    21    22   ar
    45    22    40    1
    46    23    42    1
    47    23    43    1
    48    23    44    1
