@<TRIPOS>MOLECULE
IMPHY014049
 99 100 0 0 0
SMALL
GASTEIGER

@<TRIPOS>ATOM
      1 O           1.6200    7.1200    0.0000 O.3     0  UNK0       -0.4447
      2 O           6.8162    4.1200    0.0000 O.2     1  UNK1       -0.2737
      3 O           9.4142    6.6200    0.0000 O.2     1  UNK1       -0.2734
      4 O           5.0841    7.1200    0.0000 O.3     1  UNK1       -0.3927
      5 O           4.2181    6.6200    0.0000 O.2     1  UNK1       -0.2737
      6 O          13.7723    5.0853    0.0000 O.2     1  UNK1       -0.4221
      7 O           3.3520    7.1200    0.0000 O.2     0  UNK0       -0.2264
      8 O          15.5424    5.0959    0.0000 O.2     1  UNK1       -0.2452
      9 O           8.6372   13.2479    0.0000 O.3     1  UNL1       -0.4808
     10 O           7.7712   11.7479    0.0000 O.2     1  UNL1       -0.2513
     11 N           7.6822    5.6200    0.0000 N.am    1  UNK1       -0.3024
     12 N           5.0841    5.1200    0.0000 N.am    1  UNK1       -0.3006
     13 N           2.4860    5.6200    0.0000 N.am    1  UNK1       -0.2695
     14 N          10.2803    5.1200    0.0000 N.am    1  UNK1       -0.2838
     15 N           6.8162    2.1200    0.0000 N.pl3   1  UNK1       -0.1138
     16 N           5.9501    0.6200    0.0000 N.pl3   1  UNK1       -0.2893
     17 N           7.6822    0.6200    0.0000 N.pl3   1  UNK1       -0.2893
     18 C           8.5482    5.1200    0.0000 C.3     1  UNK1        0.0998
     19 C           8.5482    4.1200    0.0000 C.3     1  UNK1       -0.0230
     20 C           5.9501    5.6200    0.0000 C.3     1  UNK1        0.1226
     21 C           7.6822    3.6200    0.0000 C.3     1  UNK1       -0.0165
     22 C           3.3520    5.1200    0.0000 C.3     1  UNK1        0.1064
     23 C           6.8162    5.1200    0.0000 C.2     1  UNK1        0.2362
     24 C           9.4142    5.6200    0.0000 C.2     1  UNK1        0.2375
     25 C           3.3520    4.1200    0.0000 C.3     1  UNK1       -0.0005
     26 C           4.2181    5.6200    0.0000 C.2     1  UNK1        0.2344
     27 C           5.9501    6.6200    0.0000 C.3     1  UNK1        0.0711
     28 C           7.6822    2.6200    0.0000 C.3     1  UNK1        0.1048
     29 C           2.4860    3.6200    0.0000 C.ar    1  UNK1       -0.0451
     30 C           1.6200    8.1200    0.0000 C.3     0  UNK0        0.1068
     31 C          11.1463    5.6200    0.0000 C.ar    1  UNK1        0.0372
     32 C           2.4860    6.6200    0.0000 C.2     0  UNK0        0.4014
     33 C          11.1463    6.6200    0.0000 C.ar    1  UNK1       -0.0368
     34 C           1.6200    4.1200    0.0000 C.ar    1  UNK1       -0.0585
     35 C           2.4860    2.6200    0.0000 C.ar    1  UNK1       -0.0585
     36 C          12.0123    5.1200    0.0000 C.ar    1  UNK1        0.0026
     37 C          12.0123    7.1200    0.0000 C.ar    1  UNK1       -0.0380
     38 C           1.6200    9.1200    0.0000 C.3     0  UNK0       -0.0253
     39 C           0.6200    8.1200    0.0000 C.3     0  UNK0       -0.0253
     40 C           2.6200    8.1200    0.0000 C.3     0  UNK0       -0.0253
     41 C          12.8783    6.6200    0.0000 C.ar    1  UNK1        0.0206
     42 C          12.8783    5.6200    0.0000 C.ar    1  UNK1        0.1411
     43 C           0.7540    3.6200    0.0000 C.ar    1  UNK1       -0.0615
     44 C           1.6200    2.1200    0.0000 C.ar    1  UNK1       -0.0615
     45 C          12.0123    8.1200    0.0000 C.3     1  UNK1       -0.0390
     46 C          13.7723    7.1547    0.0000 C.ar    1  UNK1       -0.0441
     47 C           0.7540    2.6200    0.0000 C.ar    1  UNK1       -0.0617
     48 C           6.8162    1.1200    0.0000 C.cat   1  UNK1        0.3765
     49 C          14.6783    6.6408    0.0000 C.ar    1  UNK1        0.0236
     50 C          14.6783    5.5992    0.0000 C.ar    1  UNK1        0.3372
     51 C           6.9052   13.2479    0.0000 C.3     1  UNL1        0.0331
     52 C           7.7712   12.7479    0.0000 C.2     1  UNL1        0.3016
     53 H           8.5482    5.7400    0.0000 H       1  UNK1        0.0595
     54 H           8.7603    3.5374    0.0000 H       1  UNK1        0.0289
     55 H           9.1588    4.2277    0.0000 H       1  UNK1        0.0289
     56 H           5.9501    5.0000    0.0000 H       1  UNK1        0.0618
     57 H           7.4701    4.2026    0.0000 H       1  UNK1        0.0298
     58 H           7.0716    3.5123    0.0000 H       1  UNK1        0.0298
     59 H           3.3520    5.7400    0.0000 H       1  UNK1        0.0599
     60 H           7.6822    6.2400    0.0000 H       1  UNK1        0.1495
     61 H           3.5641    3.5374    0.0000 H       1  UNK1        0.0336
     62 H           3.9626    4.2277    0.0000 H       1  UNK1        0.0336
     63 H           5.0841    4.5000    0.0000 H       1  UNK1        0.1496
     64 H           6.5607    6.5123    0.0000 H       1  UNK1        0.0580
     65 H           6.1622    7.2026    0.0000 H       1  UNK1        0.0580
     66 H           7.8942    2.0374    0.0000 H       1  UNK1        0.0693
     67 H           8.2928    2.7277    0.0000 H       1  UNK1        0.0693
     68 H           1.9491    5.3100    0.0000 H       1  UNK1        0.1528
     69 H          10.2803    4.5000    0.0000 H       1  UNK1        0.1549
     70 H          10.6093    6.9300    0.0000 H       1  UNK1        0.0639
     71 H           1.6200    4.7400    0.0000 H       1  UNK1        0.0620
     72 H           3.0230    2.3100    0.0000 H       1  UNK1        0.0620
     73 H          12.0123    4.5000    0.0000 H       1  UNK1        0.0673
     74 H           2.2400    9.1200    0.0000 H       0  UNK0        0.0268
     75 H           1.6200    9.7400    0.0000 H       0  UNK0        0.0268
     76 H           1.0000    9.1200    0.0000 H       0  UNK0        0.0268
     77 H           0.6200    8.7400    0.0000 H       0  UNK0        0.0268
     78 H           0.0000    8.1200    0.0000 H       0  UNK0        0.0268
     79 H           0.6200    7.5000    0.0000 H       0  UNK0        0.0268
     80 H           2.6200    7.5000    0.0000 H       0  UNK0        0.0268
     81 H           3.2400    8.1200    0.0000 H       0  UNK0        0.0268
     82 H           2.6200    8.7400    0.0000 H       0  UNK0        0.0268
     83 H           5.0841    7.7400    0.0000 H       1  UNK1        0.2095
     84 H           0.2170    3.9300    0.0000 H       1  UNK1        0.0618
     85 H           1.6200    1.5000    0.0000 H       1  UNK1        0.0618
     86 H          12.6323    8.1200    0.0000 H       1  UNK1        0.0278
     87 H          12.0123    8.7400    0.0000 H       1  UNK1        0.0278
     88 H          11.3923    8.1200    0.0000 H       1  UNK1        0.0278
     89 H          13.7651    7.7746    0.0000 H       1  UNK1        0.0627
     90 H           0.2170    2.3100    0.0000 H       1  UNK1        0.0618
     91 H          15.2141    6.9529    0.0000 H       1  UNK1        0.0689
     92 H           5.9501    0.0000    0.0000 H       1  UNK1        0.2546
     93 H           5.4132    0.9300    0.0000 H       1  UNK1        0.2546
     94 H           7.6822    0.0000    0.0000 H       1  UNK1        0.2546
     95 H           8.2191    0.9300    0.0000 H       1  UNK1        0.2546
     96 H           7.2152   13.7848    0.0000 H       1  UNL1        0.0342
     97 H           6.3682   13.5579    0.0000 H       1  UNL1        0.0342
     98 H           6.5952   12.7109    0.0000 H       1  UNL1        0.0342
     99 H           9.1742   12.9379    0.0000 H       1  UNL1        0.2950
@<TRIPOS>BOND
     1     1    30    1
     2     1    32    1
     3     2    23    2
     4     3    24    2
     5     4    27    1
     6     4    83    1
     7     5    26    2
     8     6    42   ar
     9     6    50   ar
    10     7    32    2
    11     8    50    2
    12     9    52    1
    13     9    99    1
    14    10    52    2
    15    18    11    1
    16    11    23   am
    17    11    60    1
    18    20    12    1
    19    12    26   am
    20    12    63    1
    21    22    13    1
    22    13    32   am
    23    13    68    1
    24    14    24   am
    25    14    31    1
    26    14    69    1
    27    15    28    1
    28    15    48    2
    29    16    48    1
    30    16    92    1
    31    16    93    1
    32    17    48    1
    33    17    94    1
    34    17    95    1
    35    18    19    1
    36    18    24    1
    37    18    53    1
    38    19    21    1
    39    19    54    1
    40    19    55    1
    41    20    23    1
    42    20    27    1
    43    20    56    1
    44    21    28    1
    45    21    57    1
    46    21    58    1
    47    22    25    1
    48    22    26    1
    49    22    59    1
    50    25    29    1
    51    25    61    1
    52    25    62    1
    53    27    64    1
    54    27    65    1
    55    28    66    1
    56    28    67    1
    57    29    34   ar
    58    29    35   ar
    59    30    38    1
    60    30    39    1
    61    30    40    1
    62    31    33   ar
    63    31    36   ar
    64    33    37   ar
    65    33    70    1
    66    34    43   ar
    67    34    71    1
    68    35    44   ar
    69    35    72    1
    70    36    42   ar
    71    36    73    1
    72    37    41   ar
    73    37    45    1
    74    38    74    1
    75    38    75    1
    76    38    76    1
    77    39    77    1
    78    39    78    1
    79    39    79    1
    80    40    80    1
    81    40    81    1
    82    40    82    1
    83    41    42   ar
    84    41    46   ar
    85    43    47   ar
    86    43    84    1
    87    44    47   ar
    88    44    85    1
    89    45    86    1
    90    45    87    1
    91    45    88    1
    92    46    49   ar
    93    46    89    1
    94    47    90    1
    95    49    50   ar
    96    49    91    1
    97    51    52    1
    98    51    96    1
    99    51    97    1
   100    51    98    1
