@<TRIPOS>MOLECULE
IMPHY004488
 33 34 0 0 0
SMALL
GASTEIGER

@<TRIPOS>ATOM
      1 O           4.2690   -3.8100    0.0000 O.3     1  UNL1       -0.4915
      2 O           2.5369   -2.8100    0.0000 O.3     1  UNL1       -0.5033
      3 O           3.4030    3.6900    0.0000 O.3     1  UNL1       -0.5066
      4 O           6.8671    3.6900    0.0000 O.3     1  UNL1       -0.5066
      5 C           4.2690   -0.8100    0.0000 C.ar    1  UNL1       -0.0213
      6 C           5.1350    1.6900    0.0000 C.ar    1  UNL1       -0.0181
      7 C           4.2690    0.1900    0.0000 C.2     1  UNL1       -0.0539
      8 C           3.4030   -1.3100    0.0000 C.ar    1  UNL1       -0.0094
      9 C           5.1350    0.6900    0.0000 C.2     1  UNL1       -0.0538
     10 C           5.1350   -1.3100    0.0000 C.ar    1  UNL1       -0.0509
     11 C           3.4030   -2.3100    0.0000 C.ar    1  UNL1        0.1590
     12 C           4.2690   -2.8100    0.0000 C.ar    1  UNL1        0.1613
     13 C           5.1350   -2.3100    0.0000 C.ar    1  UNL1       -0.0158
     14 C           6.0010    2.1900    0.0000 C.ar    1  UNL1       -0.0128
     15 C           4.2690    2.1900    0.0000 C.ar    1  UNL1       -0.0128
     16 C           4.2690    3.1900    0.0000 C.ar    1  UNL1        0.1209
     17 C           6.0010    3.1900    0.0000 C.ar    1  UNL1        0.1209
     18 C           5.1350    3.6900    0.0000 C.ar    1  UNL1        0.0213
     19 C           5.1350   -4.3100    0.0000 C.3     1  UNL1        0.0790
     20 H           3.7320    0.5000    0.0000 H       1  UNL1        0.0624
     21 H           2.8660   -1.0000    0.0000 H       1  UNL1        0.0661
     22 H           5.6720    0.3800    0.0000 H       1  UNL1        0.0624
     23 H           5.6720   -1.0000    0.0000 H       1  UNL1        0.0625
     24 H           5.6720   -2.6200    0.0000 H       1  UNL1        0.0655
     25 H           6.5380    1.8800    0.0000 H       1  UNL1        0.0660
     26 H           3.7320    1.8800    0.0000 H       1  UNL1        0.0660
     27 H           5.1350    4.3100    0.0000 H       1  UNL1        0.0691
     28 H           2.0000   -2.5000    0.0000 H       1  UNL1        0.2923
     29 H           4.8250   -4.8469    0.0000 H       1  UNL1        0.0660
     30 H           5.6720   -4.6200    0.0000 H       1  UNL1        0.0660
     31 H           5.4450   -3.7731    0.0000 H       1  UNL1        0.0660
     32 H           3.4030    4.3100    0.0000 H       1  UNL1        0.2921
     33 H           6.8671    4.3100    0.0000 H       1  UNL1        0.2921
@<TRIPOS>BOND
     1     1    12    1
     2     1    19    1
     3     2    11    1
     4     2    28    1
     5     3    16    1
     6     3    32    1
     7     4    17    1
     8     4    33    1
     9     5     7    1
    10     5     8   ar
    11     5    10   ar
    12     6     9    1
    13     6    14   ar
    14     6    15   ar
    15     7     9    2
    16     7    20    1
    17     8    11   ar
    18     8    21    1
    19     9    22    1
    20    10    13   ar
    21    10    23    1
    22    11    12   ar
    23    12    13   ar
    24    13    24    1
    25    14    17   ar
    26    14    25    1
    27    15    16   ar
    28    15    26    1
    29    16    18   ar
    30    17    18   ar
    31    18    27    1
    32    19    29    1
    33    19    30    1
    34    19    31    1
