@<TRIPOS>MOLECULE
IMPHY015716
 24 23 0 0 0
SMALL
GASTEIGER

@<TRIPOS>ATOM
      1 O           4.5981   -1.2500    0.0000 O.2     1  UNL1       -0.2967
      2 O           2.8660   -1.2500    0.0000 O.2     1  UNL1       -0.2973
      3 C           5.4641    0.2500    0.0000 C.3     1  UNL1        0.0149
      4 C           6.3301   -0.2500    0.0000 C.3     1  UNL1       -0.0466
      5 C           4.5981   -0.2500    0.0000 C.2     1  UNL1        0.1432
      6 C           5.4641    1.2500    0.0000 C.3     1  UNL1       -0.0557
      7 C           3.7320    0.2500    0.0000 C.3     1  UNL1        0.0643
      8 C           7.1962    0.2500    0.0000 C.3     1  UNL1       -0.0646
      9 C           2.8660   -0.2500    0.0000 C.2     1  UNL1        0.1374
     10 C           2.0000    0.2500    0.0000 C.3     1  UNL1       -0.0056
     11 H           6.0010    0.5600    0.0000 H       1  UNL1        0.0375
     12 H           5.9316   -0.7249    0.0000 H       1  UNL1        0.0269
     13 H           6.7287   -0.7249    0.0000 H       1  UNL1        0.0269
     14 H           6.0841    1.2500    0.0000 H       1  UNL1        0.0236
     15 H           5.4641    1.8700    0.0000 H       1  UNL1        0.0236
     16 H           4.8441    1.2500    0.0000 H       1  UNL1        0.0236
     17 H           4.1306    0.7249    0.0000 H       1  UNL1        0.0419
     18 H           3.3335    0.7249    0.0000 H       1  UNL1        0.0419
     19 H           7.5062   -0.2869    0.0000 H       1  UNL1        0.0230
     20 H           7.7331    0.5600    0.0000 H       1  UNL1        0.0230
     21 H           6.8862    0.7869    0.0000 H       1  UNL1        0.0230
     22 H           2.3100    0.7869    0.0000 H       1  UNL1        0.0306
     23 H           1.4631    0.5600    0.0000 H       1  UNL1        0.0306
     24 H           1.6900   -0.2869    0.0000 H       1  UNL1        0.0306
@<TRIPOS>BOND
     1     1     5    2
     2     2     9    2
     3     3     4    1
     4     3     5    1
     5     3     6    1
     6     3    11    1
     7     4     8    1
     8     4    12    1
     9     4    13    1
    10     5     7    1
    11     6    14    1
    12     6    15    1
    13     6    16    1
    14     7     9    1
    15     7    17    1
    16     7    18    1
    17     8    19    1
    18     8    20    1
    19     8    21    1
    20     9    10    1
    21    10    22    1
    22    10    23    1
    23    10    24    1
