@<TRIPOS>MOLECULE
IMPHY007835
 39 40 0 0 0
SMALL
GASTEIGER

@<TRIPOS>ATOM
      1 O           4.2690   -0.5950    0.0000 O.3     1  UNL1       -0.3313
      2 O           6.0010   -0.5950    0.0000 O.3     1  UNL1       -0.4608
      3 O           4.2690   -3.5950    0.0000 O.3     1  UNL1       -0.3864
      4 O           2.5369   -2.5950    0.0000 O.3     1  UNL1       -0.3865
      5 O           6.0010   -2.5950    0.0000 O.3     1  UNL1       -0.3829
      6 O           2.5369    0.4050    0.0000 O.3     1  UNL1       -0.3924
      7 O           5.1350    3.9050    0.0000 O.2     1  UNL1       -0.2924
      8 C           4.2690   -2.5950    0.0000 C.3     1  UNL1        0.1152
      9 C           3.4030   -2.0950    0.0000 C.3     1  UNL1        0.1120
     10 C           5.1350   -2.0950    0.0000 C.3     1  UNL1        0.1454
     11 C           3.4030   -1.0950    0.0000 C.3     1  UNL1        0.1140
     12 C           5.1350   -1.0950    0.0000 C.3     1  UNL1        0.2308
     13 C           2.5369   -0.5950    0.0000 C.3     1  UNL1        0.0731
     14 C           6.0010    0.4050    0.0000 C.ar    1  UNL1        0.1240
     15 C           6.8671    0.9050    0.0000 C.ar    1  UNL1       -0.0192
     16 C           5.1350    0.9050    0.0000 C.ar    1  UNL1       -0.0192
     17 C           6.8671    1.9050    0.0000 C.ar    1  UNL1       -0.0478
     18 C           5.1350    1.9050    0.0000 C.ar    1  UNL1       -0.0478
     19 C           6.0010    2.4050    0.0000 C.ar    1  UNL1        0.0173
     20 C           6.0010    3.4050    0.0000 C.2     1  UNL1        0.1601
     21 C           6.8671    3.9050    0.0000 C.3     1  UNL1       -0.0014
     22 H           3.7320   -2.9050    0.0000 H       1  UNL1        0.0648
     23 H           3.4030   -2.7150    0.0000 H       1  UNL1        0.0647
     24 H           5.1350   -2.7150    0.0000 H       1  UNL1        0.0683
     25 H           3.4030   -0.4750    0.0000 H       1  UNL1        0.0647
     26 H           5.1350   -0.4750    0.0000 H       1  UNL1        0.1084
     27 H           1.9264   -0.4873    0.0000 H       1  UNL1        0.0584
     28 H           2.3249   -1.1776    0.0000 H       1  UNL1        0.0584
     29 H           3.7320   -3.9050    0.0000 H       1  UNL1        0.2100
     30 H           2.0000   -2.2850    0.0000 H       1  UNL1        0.2100
     31 H           6.5380   -2.2850    0.0000 H       1  UNL1        0.2102
     32 H           2.0000    0.7150    0.0000 H       1  UNL1        0.2095
     33 H           7.4040    0.5950    0.0000 H       1  UNL1        0.0654
     34 H           4.5981    0.5950    0.0000 H       1  UNL1        0.0654
     35 H           7.4040    2.2150    0.0000 H       1  UNL1        0.0626
     36 H           4.5981    2.2150    0.0000 H       1  UNL1        0.0626
     37 H           7.1771    3.3681    0.0000 H       1  UNL1        0.0309
     38 H           7.4040    4.2150    0.0000 H       1  UNL1        0.0309
     39 H           6.5571    4.4419    0.0000 H       1  UNL1        0.0309
@<TRIPOS>BOND
     1     1    11    1
     2     1    12    1
     3    12     2    1
     4     2    14    1
     5     8     3    1
     6     3    29    1
     7     9     4    1
     8     4    30    1
     9    10     5    1
    10     5    31    1
    11     6    13    1
    12     6    32    1
    13     7    20    2
    14     8     9    1
    15     8    10    1
    16     8    22    1
    17     9    11    1
    18     9    23    1
    19    10    12    1
    20    10    24    1
    21    11    13    1
    22    11    25    1
    23    12    26    1
    24    13    27    1
    25    13    28    1
    26    14    15   ar
    27    14    16   ar
    28    15    17   ar
    29    15    33    1
    30    16    18   ar
    31    16    34    1
    32    17    19   ar
    33    17    35    1
    34    18    19   ar
    35    18    36    1
    36    19    20    1
    37    20    21    1
    38    21    37    1
    39    21    38    1
    40    21    39    1
