@<TRIPOS>MOLECULE
IMPHY003497
 57 59 0 0 0
SMALL
GASTEIGER

@<TRIPOS>ATOM
      1 O           7.1962   -2.1900    0.0000 O.3     1  UNL1       -0.3947
      2 O           8.0622    1.3100    0.0000 O.3     1  UNL1       -0.3947
      3 O          12.4725   -0.3853    0.0000 O.3     1  UNL1       -0.4526
      4 O          12.4725   -1.9947    0.0000 O.3     1  UNL1       -0.4526
      5 O           2.8660   -0.6900    0.0000 O.3     1  UNL1       -0.4913
      6 O           4.5981    2.3100    0.0000 O.3     1  UNL1       -0.4913
      7 O           2.8660    1.3100    0.0000 O.3     1  UNL1       -0.4885
      8 C           8.0622   -0.6900    0.0000 C.3     1  UNL1       -0.0086
      9 C           7.1962   -0.1900    0.0000 C.3     1  UNL1       -0.0086
     10 C           8.9282   -0.1900    0.0000 C.3     1  UNL1       -0.0223
     11 C           6.3301   -0.6900    0.0000 C.3     1  UNL1       -0.0222
     12 C           8.0622   -1.6900    0.0000 C.3     1  UNL1        0.0477
     13 C           7.1962    0.8100    0.0000 C.3     1  UNL1        0.0477
     14 C           9.7942   -0.6900    0.0000 C.ar    1  UNL1       -0.0433
     15 C           5.4641   -0.1900    0.0000 C.ar    1  UNL1       -0.0399
     16 C          10.6603   -0.1900    0.0000 C.ar    1  UNL1       -0.0130
     17 C           9.7942   -1.6900    0.0000 C.ar    1  UNL1       -0.0549
     18 C           5.4641    0.8100    0.0000 C.ar    1  UNL1       -0.0129
     19 C           4.5981   -0.6900    0.0000 C.ar    1  UNL1       -0.0129
     20 C          11.5263   -0.6900    0.0000 C.ar    1  UNL1        0.1665
     21 C          10.6603   -2.1900    0.0000 C.ar    1  UNL1       -0.0159
     22 C          11.5263   -1.6900    0.0000 C.ar    1  UNL1        0.1662
     23 C           3.7320   -0.1900    0.0000 C.ar    1  UNL1        0.1654
     24 C           4.5981    1.3100    0.0000 C.ar    1  UNL1        0.1654
     25 C           3.7320    0.8100    0.0000 C.ar    1  UNL1        0.2035
     26 C          13.0561   -1.1900    0.0000 C.3     1  UNL1        0.2332
     27 C           2.8660   -1.6900    0.0000 C.3     1  UNL1        0.0790
     28 C           5.4641    2.8100    0.0000 C.3     1  UNL1        0.0790
     29 C           2.0000    0.8100    0.0000 C.3     1  UNL1        0.0791
     30 H           7.5252   -1.0000    0.0000 H       1  UNL1        0.0329
     31 H           6.6592    0.1200    0.0000 H       1  UNL1        0.0329
     32 H           9.3267    0.2849    0.0000 H       1  UNL1        0.0317
     33 H           8.5297    0.2849    0.0000 H       1  UNL1        0.0317
     34 H           5.9316   -1.1650    0.0000 H       1  UNL1        0.0317
     35 H           6.7287   -1.1650    0.0000 H       1  UNL1        0.0317
     36 H           8.2742   -2.2726    0.0000 H       1  UNL1        0.0560
     37 H           8.6728   -1.5823    0.0000 H       1  UNL1        0.0560
     38 H           6.9841    1.3926    0.0000 H       1  UNL1        0.0560
     39 H           6.5856    0.7023    0.0000 H       1  UNL1        0.0560
     40 H          10.6603    0.4300    0.0000 H       1  UNL1        0.0658
     41 H           9.2573   -2.0000    0.0000 H       1  UNL1        0.0621
     42 H           6.0010    1.1200    0.0000 H       1  UNL1        0.0658
     43 H           4.5981   -1.3100    0.0000 H       1  UNL1        0.0658
     44 H           7.1962   -2.8100    0.0000 H       1  UNL1        0.2094
     45 H           8.0622    1.9300    0.0000 H       1  UNL1        0.2094
     46 H          10.6603   -2.8100    0.0000 H       1  UNL1        0.0655
     47 H          13.5170   -1.6047    0.0000 H       1  UNL1        0.1166
     48 H          13.5170   -0.7753    0.0000 H       1  UNL1        0.1166
     49 H           2.2460   -1.6900    0.0000 H       1  UNL1        0.0660
     50 H           2.8660   -2.3100    0.0000 H       1  UNL1        0.0660
     51 H           3.4860   -1.6900    0.0000 H       1  UNL1        0.0660
     52 H           5.7741    2.2731    0.0000 H       1  UNL1        0.0660
     53 H           6.0010    3.1200    0.0000 H       1  UNL1        0.0660
     54 H           5.1541    3.3469    0.0000 H       1  UNL1        0.0660
     55 H           1.6900    1.3469    0.0000 H       1  UNL1        0.0660
     56 H           1.4631    0.5000    0.0000 H       1  UNL1        0.0660
     57 H           2.3100    0.2731    0.0000 H       1  UNL1        0.0660
@<TRIPOS>BOND
     1     1    12    1
     2     1    44    1
     3     2    13    1
     4     2    45    1
     5     3    20    1
     6     3    26    1
     7     4    22    1
     8     4    26    1
     9     5    23    1
    10     5    27    1
    11     6    24    1
    12     6    28    1
    13     7    25    1
    14     7    29    1
    15     8     9    1
    16     8    10    1
    17     8    12    1
    18     8    30    1
    19     9    11    1
    20     9    13    1
    21     9    31    1
    22    10    14    1
    23    10    32    1
    24    10    33    1
    25    11    15    1
    26    11    34    1
    27    11    35    1
    28    12    36    1
    29    12    37    1
    30    13    38    1
    31    13    39    1
    32    14    16   ar
    33    14    17   ar
    34    15    18   ar
    35    15    19   ar
    36    16    20   ar
    37    16    40    1
    38    17    21   ar
    39    17    41    1
    40    18    24   ar
    41    18    42    1
    42    19    23   ar
    43    19    43    1
    44    20    22   ar
    45    21    22   ar
    46    21    46    1
    47    23    25   ar
    48    24    25   ar
    49    26    47    1
    50    26    48    1
    51    27    49    1
    52    27    50    1
    53    27    51    1
    54    28    52    1
    55    28    53    1
    56    28    54    1
    57    29    55    1
    58    29    56    1
    59    29    57    1
