@<TRIPOS>MOLECULE
IMPHY017495
 20 19 0 0 0
SMALL
GASTEIGER

@<TRIPOS>ATOM
      1 O           2.5369   -0.5000    0.0000 O.3     1  UNL1       -0.3851
      2 C           3.4030    0.0000    0.0000 C.3     1  UNL1        0.0788
      3 C           2.9030    0.8660    0.0000 C.3     1  UNL1       -0.0327
      4 C           3.9030   -0.8660    0.0000 C.3     1  UNL1       -0.0327
      5 C           4.2690    0.5000    0.0000 C.2     1  UNL1       -0.0534
      6 C           5.1350    0.0000    0.0000 C.2     1  UNL1       -0.0636
      7 C           6.0010    0.5000    0.0000 C.2     1  UNL1       -0.0691
      8 C           6.8671   -0.0000    0.0000 C.2     1  UNL1       -0.0987
      9 H           3.4399    1.1760    0.0000 H       1  UNL1        0.0260
     10 H           2.5930    1.4030    0.0000 H       1  UNL1        0.0260
     11 H           2.3660    0.5560    0.0000 H       1  UNL1        0.0260
     12 H           3.3660   -1.1760    0.0000 H       1  UNL1        0.0260
     13 H           4.2130   -1.4030    0.0000 H       1  UNL1        0.0260
     14 H           4.4399   -0.5560    0.0000 H       1  UNL1        0.0260
     15 H           4.2690    1.1200    0.0000 H       1  UNL1        0.0600
     16 H           2.0000   -0.1900    0.0000 H       1  UNL1        0.2106
     17 H           5.1350   -0.6200    0.0000 H       1  UNL1        0.0615
     18 H           6.0010    1.1200    0.0000 H       1  UNL1        0.0612
     19 H           6.8671   -0.6200    0.0000 H       1  UNL1        0.0535
     20 H           7.4040    0.3100    0.0000 H       1  UNL1        0.0535
@<TRIPOS>BOND
     1     1     2    1
     2     1    16    1
     3     2     3    1
     4     2     4    1
     5     2     5    1
     6     3     9    1
     7     3    10    1
     8     3    11    1
     9     4    12    1
    10     4    13    1
    11     4    14    1
    12     5     6    2
    13     5    15    1
    14     6     7    1
    15     6    17    1
    16     7     8    2
    17     7    18    1
    18     8    19    1
    19     8    20    1
