@<TRIPOS>MOLECULE
IMPHY000745
 28 30 0 0 0
SMALL
GASTEIGER

@<TRIPOS>ATOM
      1 O           2.5836   -1.3394    0.0000 O.2     1  UNL1       -0.4590
      2 O           4.3798    1.5069    0.0000 O.2     1  UNL1       -0.4213
      3 O           6.1279   -1.5346    0.0000 O.3     1  UNL1       -0.4906
      4 O           4.3958   -2.5346    0.0000 O.3     1  UNL1       -0.4885
      5 O           5.2740    3.0346    0.0000 O.2     1  UNL1       -0.2452
      6 C           3.5298   -0.0346    0.0000 C.ar    1  UNL1        0.0669
      7 C           4.3958    0.4654    0.0000 C.ar    1  UNL1        0.1535
      8 C           5.2619   -0.0346    0.0000 C.ar    1  UNL1        0.0637
      9 C           3.5298   -1.0346    0.0000 C.ar    1  UNL1        0.1834
     10 C           5.2619   -1.0346    0.0000 C.ar    1  UNL1        0.1759
     11 C           4.3958   -1.5346    0.0000 C.ar    1  UNL1        0.2055
     12 C           2.5836    0.2701    0.0000 C.ar    1  UNL1       -0.0124
     13 C           6.1719    0.4722    0.0000 C.ar    1  UNL1       -0.0406
     14 C           2.0000   -0.5346    0.0000 C.ar    1  UNL1        0.0934
     15 C           6.1799    1.5138    0.0000 C.ar    1  UNL1        0.0237
     16 C           5.2778    2.0346    0.0000 C.ar    1  UNL1        0.3372
     17 C           6.1279   -2.5346    0.0000 C.3     1  UNL1        0.0790
     18 C           3.5298   -3.0346    0.0000 C.3     1  UNL1        0.0791
     19 H           2.3910    0.8594    0.0000 H       1  UNL1        0.0656
     20 H           6.7052    0.1560    0.0000 H       1  UNL1        0.0628
     21 H           1.3800   -0.5346    0.0000 H       1  UNL1        0.1030
     22 H           6.7180    1.8218    0.0000 H       1  UNL1        0.0689
     23 H           5.5079   -2.5346    0.0000 H       1  UNL1        0.0660
     24 H           6.1279   -3.1546    0.0000 H       1  UNL1        0.0660
     25 H           6.7479   -2.5346    0.0000 H       1  UNL1        0.0660
     26 H           3.2198   -2.4977    0.0000 H       1  UNL1        0.0660
     27 H           2.9929   -3.3446    0.0000 H       1  UNL1        0.0660
     28 H           3.8398   -3.5716    0.0000 H       1  UNL1        0.0660
@<TRIPOS>BOND
     1     1     9   ar
     2     1    14   ar
     3     2     7   ar
     4     2    16   ar
     5     3    10    1
     6     3    17    1
     7     4    11    1
     8     4    18    1
     9     5    16    2
    10     6     7   ar
    11     6     9   ar
    12     6    12   ar
    13     7     8   ar
    14     8    10   ar
    15     8    13   ar
    16     9    11   ar
    17    10    11   ar
    18    12    14   ar
    19    12    19    1
    20    13    15   ar
    21    13    20    1
    22    14    21    1
    23    15    16   ar
    24    15    22    1
    25    17    23    1
    26    17    24    1
    27    17    25    1
    28    18    26    1
    29    18    27    1
    30    18    28    1
