@<TRIPOS>MOLECULE
IMPHY017277
 18 18 0 0 0
SMALL
GASTEIGER

@<TRIPOS>ATOM
      1 O           2.0000   -0.0000    0.0000 O.2     1  UNL1       -0.2907
      2 N           4.5981   -0.5000    0.0000 N.ar    1  UNL1       -0.2488
      3 N           4.5981    1.5000    0.0000 N.ar    1  UNL1       -0.2564
      4 C           3.7320   -0.0000    0.0000 C.ar    1  UNL1        0.1267
      5 C           3.7320    1.0000    0.0000 C.ar    1  UNL1        0.0669
      6 C           2.8660   -0.5000    0.0000 C.2     1  UNL1        0.1799
      7 C           2.8660    1.5000    0.0000 C.3     1  UNL1       -0.0202
      8 C           2.8660   -1.5000    0.0000 C.3     1  UNL1        0.0002
      9 C           5.4641    0.0000    0.0000 C.ar    1  UNL1        0.0465
     10 C           5.4641    1.0000    0.0000 C.ar    1  UNL1        0.0460
     11 H           3.1760    2.0369    0.0000 H       1  UNL1        0.0293
     12 H           2.3291    1.8100    0.0000 H       1  UNL1        0.0293
     13 H           2.5560    0.9631    0.0000 H       1  UNL1        0.0293
     14 H           2.2460   -1.5000    0.0000 H       1  UNL1        0.0310
     15 H           2.8660   -2.1200    0.0000 H       1  UNL1        0.0310
     16 H           3.4860   -1.5000    0.0000 H       1  UNL1        0.0310
     17 H           6.0010   -0.3100    0.0000 H       1  UNL1        0.0845
     18 H           6.0010    1.3100    0.0000 H       1  UNL1        0.0845
@<TRIPOS>BOND
     1     1     6    2
     2     2     4   ar
     3     2     9   ar
     4     3     5   ar
     5     3    10   ar
     6     4     5   ar
     7     4     6    1
     8     5     7    1
     9     6     8    1
    10     7    11    1
    11     7    12    1
    12     7    13    1
    13     8    14    1
    14     8    15    1
    15     8    16    1
    16     9    10   ar
    17     9    17    1
    18    10    18    1
