@<TRIPOS>MOLECULE
IMPHY002332
 25 30 0 0 0
SMALL
GASTEIGER

@<TRIPOS>ATOM
      1 C           4.1991    3.6386    0.0000 C.3     1  UNL1        0.0675
      2 C           4.1991    2.7606    0.0000 C.3     1  UNL1        0.0935
      3 C           2.6797    3.6386    0.0000 C.ar    1  UNL1       -0.0024
      4 C           4.5810    4.4731    0.0000 C.3     1  UNL1        0.1588
      5 C           4.9588    4.0766    0.0000 C.3     1  UNL1        0.0243
      6 C           4.9588    2.3227    0.0000 C.3     1  UNL1        0.0765
      7 N           3.4414    2.3227    0.0000 N.pl3   1  UNL1       -0.3059
      8 C           2.6797    2.7606    0.0000 C.ar    1  UNL1        0.0441
      9 C           1.9221    4.0766    0.0000 C.ar    1  UNL1        0.0340
     10 C           6.5446    4.1679    0.0000 C.3     1  UNL1        0.0493
     11 O           3.9022    4.8218    0.0000 O.3     1  UNL1       -0.2227
     12 C           5.7185    3.6386    0.0000 C.3     1  UNL1        0.0610
     13 N           5.7185    2.7606    0.0000 N.3     1  UNL1       -0.2701
     14 C           4.9588    1.4447    0.0000 C.3     1  UNL1        0.0218
     15 C           3.4498    1.2703    0.0000 C.3     1  UNL1        0.1122
     16 C           1.9221    2.3227    0.0000 C.ar    1  UNL1        0.0173
     17 C           1.1624    3.6386    0.0000 C.ar    1  UNL1        0.1385
     18 C           5.7185    1.0067    0.0000 C.3     1  UNL1        0.0245
     19 C           6.4781    2.3227    0.0000 C.3     1  UNL1        0.0945
     20 C           1.1624    2.7606    0.0000 C.ar    1  UNL1        0.0381
     21 O           0.5999    4.2510    0.0000 O.3     1  UNL1       -0.4714
     22 C           6.4781    1.4447    0.0000 C.2     1  UNL1       -0.0327
     23 C           0.0000    3.7237    0.0000 C.3     1  UNL1        0.2525
     24 C           7.2420    0.9216    0.0000 C.2     1  UNL1       -0.0329
     25 C           7.2648    0.0000    0.0000 C.3     1  UNL1        0.0301
@<TRIPOS>BOND
     1     1     2    1
     2     1     3    1
     3     1     4    1
     4     1     5    1
     5     2     6    1
     6     2     7    1
     7     3     8   ar
     8     3     9   ar
     9     4    10    1
    10     4    11    1
    11     6    13    1
    12     6    14    1
    13     7     8    1
    14     7    15    1
    15     8    16   ar
    16     9    17   ar
    17    12     5    1
    18    12    10    1
    19    12    13    1
    20    13    19    1
    21    16    20   ar
    22    17    20   ar
    23    17    21    1
    24    18    10    1
    25    18    14    1
    26    18    22    1
    27    19    22    1
    28    21    23    1
    29    22    24    2
    30    24    25    1
