@<TRIPOS>MOLECULE
IMPHY014285
 22 21 0 0 0
SMALL
GASTEIGER

@<TRIPOS>ATOM
      1 O           2.5369    0.7500    0.0000 O.2     1  UNL1       -0.5116
      2 C           6.0010    0.7500    0.0000 C.3     1  UNL1       -0.0529
      3 C           5.1350    0.2500    0.0000 C.3     1  UNL1       -0.0463
      4 C           6.8671    0.2500    0.0000 C.3     1  UNL1       -0.0559
      5 C           4.2690    0.7500    0.0000 C.3     1  UNL1        0.0041
      6 C           7.7331    0.7500    0.0000 C.3     1  UNL1       -0.0653
      7 C           3.4030    0.2500    0.0000 C.2     1  UNL1        0.0870
      8 C           3.4030   -0.7500    0.0000 C.2     1  UNL1       -0.0612
      9 H           6.3996    1.2250    0.0000 H       1  UNL1        0.0265
     10 H           5.6025    1.2250    0.0000 H       1  UNL1        0.0265
     11 H           4.7365   -0.2249    0.0000 H       1  UNL1        0.0269
     12 H           5.5335   -0.2249    0.0000 H       1  UNL1        0.0269
     13 H           6.4685   -0.2249    0.0000 H       1  UNL1        0.0263
     14 H           7.2656   -0.2249    0.0000 H       1  UNL1        0.0263
     15 H           4.6675    1.2250    0.0000 H       1  UNL1        0.0343
     16 H           3.8705    1.2250    0.0000 H       1  UNL1        0.0343
     17 H           8.0431    0.2131    0.0000 H       1  UNL1        0.0230
     18 H           8.2700    1.0600    0.0000 H       1  UNL1        0.0230
     19 H           7.4231    1.2869    0.0000 H       1  UNL1        0.0230
     20 H           2.8660   -1.0600    0.0000 H       1  UNL1        0.0567
     21 H           3.9399   -1.0600    0.0000 H       1  UNL1        0.0567
     22 H           2.0000    0.4400    0.0000 H       1  UNL1        0.2916
@<TRIPOS>BOND
     1     1     7    1
     2     1    22    1
     3     2     3    1
     4     2     4    1
     5     2     9    1
     6     2    10    1
     7     3     5    1
     8     3    11    1
     9     3    12    1
    10     4     6    1
    11     4    13    1
    12     4    14    1
    13     5     7    1
    14     5    15    1
    15     5    16    1
    16     6    17    1
    17     6    18    1
    18     6    19    1
    19     7     8    2
    20     8    20    1
    21     8    21    1
