@<TRIPOS>MOLECULE
IMPHY016907
 32 34 0 0 0
SMALL
GASTEIGER

@<TRIPOS>ATOM
      1 O           6.0682   -0.2500    0.0000 O.2     1  UNL1       -0.4545
      2 O          10.3984   -1.7500    0.0000 O.3     1  UNL1       -0.5065
      3 O           6.0682    2.7500    0.0000 O.2     1  UNL1       -0.2870
      4 O           2.5381   -0.2742    0.0000 O.3     1  UNL1       -0.5066
      5 C           7.8003   -0.2500    0.0000 C.ar    1  UNL1        0.0179
      6 C           6.9343    0.2500    0.0000 C.ar    1  UNL1        0.1392
      7 C           5.2022    1.2500    0.0000 C.ar    1  UNL1        0.0642
      8 C           5.2022    0.2500    0.0000 C.ar    1  UNL1        0.1427
      9 C           7.8003   -1.2500    0.0000 C.ar    1  UNL1       -0.0447
     10 C           6.9343    1.2500    0.0000 C.ar    1  UNL1        0.0287
     11 C           8.6663   -1.7500    0.0000 C.ar    1  UNL1       -0.0084
     12 C           6.0682    1.7500    0.0000 C.ar    1  UNL1        0.1931
     13 C           8.6663    0.2500    0.0000 C.ar    1  UNL1       -0.0476
     14 C           4.3083    1.7847    0.0000 C.ar    1  UNL1       -0.0439
     15 C           4.3083   -0.2847    0.0000 C.ar    1  UNL1        0.0229
     16 C           9.5323   -1.2500    0.0000 C.ar    1  UNL1        0.1198
     17 C           9.5323   -0.2500    0.0000 C.ar    1  UNL1       -0.0192
     18 C           3.4022    0.2292    0.0000 C.ar    1  UNL1        0.1204
     19 C           3.4022    1.2708    0.0000 C.ar    1  UNL1       -0.0193
     20 C           8.6663   -2.7500    0.0000 C.3     1  UNL1       -0.0362
     21 H           7.2634   -1.5600    0.0000 H       1  UNL1        0.0628
     22 H           7.4712    1.5600    0.0000 H       1  UNL1        0.0693
     23 H           8.6663    0.8700    0.0000 H       1  UNL1        0.0626
     24 H           4.3154    2.4046    0.0000 H       1  UNL1        0.0627
     25 H           4.3154   -0.9046    0.0000 H       1  UNL1        0.0691
     26 H          10.0693    0.0600    0.0000 H       1  UNL1        0.0654
     27 H           2.8665    1.5829    0.0000 H       1  UNL1        0.0654
     28 H           8.0463   -2.7500    0.0000 H       1  UNL1        0.0279
     29 H           8.6663   -3.3700    0.0000 H       1  UNL1        0.0279
     30 H           9.2863   -2.7500    0.0000 H       1  UNL1        0.0279
     31 H          10.9353   -1.4400    0.0000 H       1  UNL1        0.2921
     32 H           2.0000    0.0338    0.0000 H       1  UNL1        0.2921
@<TRIPOS>BOND
     1     1     6   ar
     2     1     8   ar
     3     2    16    1
     4     2    31    1
     5     3    12    2
     6     4    18    1
     7     4    32    1
     8     5     6    1
     9     5     9   ar
    10     5    13   ar
    11     6    10   ar
    12     7     8   ar
    13     7    12   ar
    14     7    14   ar
    15     8    15   ar
    16     9    11   ar
    17     9    21    1
    18    10    12   ar
    19    10    22    1
    20    11    16   ar
    21    11    20    1
    22    13    17   ar
    23    13    23    1
    24    14    19   ar
    25    14    24    1
    26    15    18   ar
    27    15    25    1
    28    16    17   ar
    29    17    26    1
    30    18    19   ar
    31    19    27    1
    32    20    28    1
    33    20    29    1
    34    20    30    1
