@<TRIPOS>MOLECULE
IMPHY007495
 58 61 0 0 0
SMALL
GASTEIGER

@<TRIPOS>ATOM
      1 O           5.8173    3.1960    0.0000 O.3     1  UNL1       -0.4599
      2 O           6.8671   -0.8228    0.0000 O.3     1  UNL1       -0.3411
      3 O           5.1350   -0.8228    0.0000 O.3     1  UNL1       -0.3405
      4 O           4.0774    3.5542    0.0000 O.2     1  UNL1       -0.2505
      5 O           9.7559    1.3882    0.0000 O.2     1  UNL1       -0.2876
      6 O           6.8671   -2.8228    0.0000 O.3     1  UNL1       -0.3841
      7 O           5.1350   -3.8228    0.0000 O.3     1  UNL1       -0.3864
      8 O           3.4030   -2.8228    0.0000 O.3     1  UNL1       -0.3865
      9 O           2.5369   -1.3228    0.0000 O.3     1  UNL1       -0.3924
     10 C           5.7436    1.5860    0.0000 C.3     1  UNL1        0.0123
     11 C           6.3671    2.3678    0.0000 C.3     1  UNL1        0.1172
     12 C           7.3671    2.3678    0.0000 C.3     1  UNL1        0.0463
     13 C           5.9661    0.6110    0.0000 C.3     1  UNL1       -0.0156
     14 C           4.8138    1.9377    0.0000 C.3     1  UNL1        0.0599
     15 C           6.8671    0.1772    0.0000 C.3     1  UNL1        0.0836
     16 C           7.9906    1.5860    0.0000 C.2     1  UNL1        0.0113
     17 C           7.7680    0.6110    0.0000 C.2     1  UNL1       -0.0367
     18 C           7.9168    3.1960    0.0000 C.2     1  UNL1       -0.0580
     19 C           4.8592    2.9307    0.0000 C.2     1  UNL1        0.3106
     20 C           3.9783    1.3882    0.0000 C.3     1  UNL1       -0.0519
     21 C           8.9203    1.9377    0.0000 C.2     1  UNL1        0.1828
     22 C           6.0010   -1.3228    0.0000 C.3     1  UNL1        0.1886
     23 C           8.8749    2.9307    0.0000 C.2     1  UNL1       -0.0150
     24 C           6.0010   -2.3228    0.0000 C.3     1  UNL1        0.1341
     25 C           8.5499   -0.0125    0.0000 C.3     1  UNL1       -0.0407
     26 C           5.1350   -2.8228    0.0000 C.3     1  UNL1        0.1141
     27 C           4.2690   -2.3228    0.0000 C.3     1  UNL1        0.1119
     28 C           7.5671    4.1328    0.0000 C.3     1  UNL1       -0.0427
     29 C           4.2690   -1.3228    0.0000 C.3     1  UNL1        0.1130
     30 C           3.4030   -0.8228    0.0000 C.3     1  UNL1        0.0730
     31 H           5.1027    1.0276    0.0000 H       1  UNL1        0.0345
     32 H           6.7689    3.1168    0.0000 H       1  UNL1        0.0746
     33 H           6.9652    3.1168    0.0000 H       1  UNL1        0.0431
     34 H           5.3461    0.6110    0.0000 H       1  UNL1        0.0297
     35 H           5.8281    0.0066    0.0000 H       1  UNL1        0.0297
     36 H           4.8819    1.3214    0.0000 H       1  UNL1        0.0415
     37 H           7.3920   -0.1527    0.0000 H       1  UNL1        0.0644
     38 H           3.6376    1.9062    0.0000 H       1  UNL1        0.0238
     39 H           3.4602    1.0476    0.0000 H       1  UNL1        0.0238
     40 H           4.3189    0.8702    0.0000 H       1  UNL1        0.0238
     41 H           6.0010   -0.7028    0.0000 H       1  UNL1        0.0938
     42 H           9.3596    3.3173    0.0000 H       1  UNL1        0.0655
     43 H           6.0010   -2.9428    0.0000 H       1  UNL1        0.0671
     44 H           8.1633   -0.4972    0.0000 H       1  UNL1        0.0275
     45 H           9.0346   -0.3990    0.0000 H       1  UNL1        0.0275
     46 H           8.9364    0.4723    0.0000 H       1  UNL1        0.0275
     47 H           4.5981   -3.1328    0.0000 H       1  UNL1        0.0648
     48 H           3.7320   -2.0128    0.0000 H       1  UNL1        0.0647
     49 H           4.2690   -0.7028    0.0000 H       1  UNL1        0.0647
     50 H           8.1479    4.3497    0.0000 H       1  UNL1        0.0275
     51 H           7.3502    4.7137    0.0000 H       1  UNL1        0.0275
     52 H           6.9862    3.9160    0.0000 H       1  UNL1        0.0275
     53 H           3.8015   -0.3479    0.0000 H       1  UNL1        0.0584
     54 H           3.0044   -0.3479    0.0000 H       1  UNL1        0.0584
     55 H           6.8671   -3.4428    0.0000 H       1  UNL1        0.2101
     56 H           4.5981   -4.1328    0.0000 H       1  UNL1        0.2100
     57 H           3.4030   -3.4428    0.0000 H       1  UNL1        0.2100
     58 H           2.0000   -1.0128    0.0000 H       1  UNL1        0.2095
@<TRIPOS>BOND
     1     1    11    1
     2     1    19    1
     3    15     2    1
     4    22     2    1
     5     3    22    1
     6     3    29    1
     7     4    19    2
     8     5    21    2
     9    24     6    1
    10     6    55    1
    11    26     7    1
    12     7    56    1
    13    27     8    1
    14     8    57    1
    15     9    30    1
    16     9    58    1
    17    10    11    1
    18    10    13    1
    19    10    14    1
    20    10    31    1
    21    11    12    1
    22    11    32    1
    23    12    16    1
    24    12    18    1
    25    12    33    1
    26    13    15    1
    27    13    34    1
    28    13    35    1
    29    14    19    1
    30    14    20    1
    31    14    36    1
    32    15    17    1
    33    15    37    1
    34    16    17    2
    35    16    21    1
    36    17    25    1
    37    18    23    2
    38    18    28    1
    39    20    38    1
    40    20    39    1
    41    20    40    1
    42    21    23    1
    43    22    24    1
    44    22    41    1
    45    23    42    1
    46    24    26    1
    47    24    43    1
    48    25    44    1
    49    25    45    1
    50    25    46    1
    51    26    27    1
    52    26    47    1
    53    27    29    1
    54    27    48    1
    55    28    50    1
    56    28    51    1
    57    28    52    1
    58    29    30    1
    59    29    49    1
    60    30    53    1
    61    30    54    1
