@<TRIPOS>MOLECULE
IMPHY011435
 51 54 0 0 0
SMALL
GASTEIGER

@<TRIPOS>ATOM
      1 O           5.9981    0.6726    0.0000 O.3     1  UNL1       -0.4533
      2 O           8.1301    1.2726    0.0000 O.3     1  UNL1       -0.3874
      3 O           5.2910   -0.8345    0.0000 O.2     1  UNL1       -0.2498
      4 O           4.6497   -1.7620    0.0000 O.3     1  UNL1       -0.5031
      5 O           2.8680   -0.7516    0.0000 O.3     1  UNL1       -0.5031
      6 C           7.2641   -0.2274    0.0000 C.3     1  UNL1        0.0139
      7 C           6.3981   -0.7274    0.0000 C.3     1  UNL1        0.1022
      8 C           8.1741   -0.7343    0.0000 C.3     1  UNL1       -0.0283
      9 C           7.2641    0.7726    0.0000 C.3     1  UNL1        0.1009
     10 C           6.3820   -1.7690    0.0000 C.3     1  UNL1       -0.0326
     11 C           8.1821   -1.7759    0.0000 C.3     1  UNL1       -0.0475
     12 C           6.3981    1.2726    0.0000 C.3     1  UNL1        0.1545
     13 C           5.5320   -0.2274    0.0000 C.ar    1  UNL1        0.0216
     14 C           7.2800   -2.2967    0.0000 C.3     1  UNL1       -0.0512
     15 C           5.5320    0.7726    0.0000 C.ar    1  UNL1        0.0035
     16 C           5.9981   -0.1274    0.0000 C.2     1  UNL1        0.3189
     17 C           9.1740   -0.7227    0.0000 C.3     1  UNL1       -0.0594
     18 C           8.6640    0.1375    0.0000 C.3     1  UNL1       -0.0594
     19 C           4.6381   -0.7621    0.0000 C.ar    1  UNL1        0.1632
     20 C           4.6381    1.3072    0.0000 C.ar    1  UNL1       -0.0476
     21 C           3.7320    0.7934    0.0000 C.ar    1  UNL1        0.0007
     22 C           3.7320   -0.2483    0.0000 C.ar    1  UNL1        0.1620
     23 C           2.8680    1.2967    0.0000 C.3     1  UNL1       -0.0179
     24 C           2.8718    2.2967    0.0000 C.3     1  UNL1       -0.0585
     25 C           2.0000    0.8001    0.0000 C.3     1  UNL1       -0.0585
     26 H           8.0002    0.1976    0.0000 H       1  UNL1        0.0346
     27 H           7.2641    1.3926    0.0000 H       1  UNL1        0.0637
     28 H           5.7729   -1.6534    0.0000 H       1  UNL1        0.0279
     29 H           6.1640   -2.3494    0.0000 H       1  UNL1        0.0279
     30 H           8.3957   -2.3580    0.0000 H       1  UNL1        0.0271
     31 H           8.7922   -1.6651    0.0000 H       1  UNL1        0.0271
     32 H           6.3981    2.1226    0.0000 H       1  UNL1        0.0812
     33 H           6.8791   -2.7696    0.0000 H       1  UNL1        0.0266
     34 H           7.6774   -2.7727    0.0000 H       1  UNL1        0.0266
     35 H           9.1812   -1.3427    0.0000 H       1  UNL1        0.0235
     36 H           9.7940   -0.7156    0.0000 H       1  UNL1        0.0235
     37 H           9.1669   -0.1028    0.0000 H       1  UNL1        0.0235
     38 H           9.2045   -0.1663    0.0000 H       1  UNL1        0.0235
     39 H           8.9678    0.6779    0.0000 H       1  UNL1        0.0235
     40 H           8.1236    0.4412    0.0000 H       1  UNL1        0.0235
     41 H           4.6453    1.9272    0.0000 H       1  UNL1        0.0626
     42 H           8.1301    1.8926    0.0000 H       1  UNL1        0.2100
     43 H           2.3322    1.6088    0.0000 H       1  UNL1        0.0345
     44 H           4.1164   -2.0782    0.0000 H       1  UNL1        0.2923
     45 H           2.8703   -1.3716    0.0000 H       1  UNL1        0.2923
     46 H           3.4918    2.2943    0.0000 H       1  UNL1        0.0235
     47 H           2.8742    2.9167    0.0000 H       1  UNL1        0.0235
     48 H           2.2518    2.2991    0.0000 H       1  UNL1        0.0235
     49 H           1.6921    1.3382    0.0000 H       1  UNL1        0.0235
     50 H           1.4619    0.4921    0.0000 H       1  UNL1        0.0235
     51 H           2.3079    0.2619    0.0000 H       1  UNL1        0.0235
@<TRIPOS>BOND
     1     1    12    1
     2     1    16    1
     3     9     2    1
     4     2    42    1
     5     3    16    2
     6     4    19    1
     7     4    44    1
     8     5    22    1
     9     5    45    1
    10     6     7    1
    11     6     8    1
    12     6     9    1
    13     6    26    1
    14     7    10    1
    15     7    13    1
    16     7    16    1
    17     8    11    1
    18     8    17    1
    19     8    18    1
    20     9    12    1
    21     9    27    1
    22    10    14    1
    23    10    28    1
    24    10    29    1
    25    11    14    1
    26    11    30    1
    27    11    31    1
    28    12    15    1
    29    12    32    1
    30    13    15   ar
    31    13    19   ar
    32    14    33    1
    33    14    34    1
    34    15    20   ar
    35    17    35    1
    36    17    36    1
    37    17    37    1
    38    18    38    1
    39    18    39    1
    40    18    40    1
    41    19    22   ar
    42    20    21   ar
    43    20    41    1
    44    21    22   ar
    45    21    23    1
    46    23    24    1
    47    23    25    1
    48    23    43    1
    49    24    46    1
    50    24    47    1
    51    24    48    1
    52    25    49    1
    53    25    50    1
    54    25    51    1
