@<TRIPOS>MOLECULE
IMPHY008116
 95 103 0 0 0
SMALL
GASTEIGER

@<TRIPOS>ATOM
      1 O          11.1975    3.6058    0.0000 O.3     1  UNL1       -0.4779
      2 O           5.9860    1.2783    0.0000 O.3     1  UNL1       -0.3281
      3 O           8.7262    0.0424    0.0000 O.3     1  UNL1       -0.4502
      4 O           7.1910    2.7254    0.0000 O.3     1  UNL1       -0.4275
      5 O           6.8680   -1.2633    0.0000 O.3     1  UNL1       -0.4512
      6 O           7.7899    2.2852    0.0000 O.3     1  UNL1       -0.4476
      7 O          12.9978    2.0128    0.0000 O.3     1  UNL1       -0.3560
      8 O          12.5429    2.9033    0.0000 O.3     1  UNL1       -0.3560
      9 O           4.8772   -1.2292    0.0000 O.3     1  UNL1       -0.4584
     10 O          12.7785    0.5057    0.0000 O.2     1  UNL1       -0.2868
     11 O          10.2392   -0.4050    0.0000 O.2     1  UNL1       -0.2453
     12 O          10.7767    5.5137    0.0000 O.3     1  UNL1       -0.5009
     13 O           7.5718    4.2564    0.0000 O.2     1  UNL1       -0.2449
     14 O           8.7852    6.0135    0.0000 O.3     1  UNL1       -0.5032
     15 O           5.8477   -2.9435    0.0000 O.2     1  UNL1       -0.2449
     16 O           6.9297    3.7885    0.0000 O.2     1  UNL1       -0.2449
     17 O           5.8772   -1.2292    0.0000 O.2     1  UNL1       -0.2449
     18 O           6.3741   -5.5974    0.0000 O.3     1  UNL1       -0.5028
     19 O           5.3803   -5.5974    0.0000 O.3     1  UNL1       -0.5028
     20 O           9.4464   -3.8394    0.0000 O.3     1  UNL1       -0.5032
     21 O           8.4223   -5.6132    0.0000 O.3     1  UNL1       -0.5009
     22 O           3.3321   -5.6132    0.0000 O.3     1  UNL1       -0.5009
     23 O           2.3079   -3.8394    0.0000 O.3     1  UNL1       -0.5032
     24 O           3.4618    2.8019    0.0000 O.3     1  UNL1       -0.5032
     25 O           5.2054    5.7952    0.0000 O.3     1  UNL1       -0.5032
     26 O           3.4695    4.8018    0.0000 O.3     1  UNL1       -0.5009
     27 C          10.2559    2.1401    0.0000 C.3     1  UNL1        0.0629
     28 C          11.1497    2.6098    0.0000 C.3     1  UNL1        0.1723
     29 C           7.7780    0.2436    0.0000 C.3     1  UNL1        0.1851
     30 C           6.8680   -0.2633    0.0000 C.3     1  UNL1        0.1730
     31 C           7.7861    1.2852    0.0000 C.3     1  UNL1        0.2053
     32 C           9.7745    2.9814    0.0000 C.ar    1  UNL1        0.0234
     33 C          11.9991    2.0640    0.0000 C.3     1  UNL1        0.2684
     34 C           6.0020    0.2367    0.0000 C.3     1  UNL1        0.1371
     35 C          10.2025    1.1723    0.0000 C.2     1  UNL1        0.0513
     36 C           6.8840    1.8060    0.0000 C.3     1  UNL1        0.2465
     37 C          10.2349    3.8660    0.0000 C.ar    1  UNL1        0.1707
     38 C           8.9130    3.4257    0.0000 C.ar    1  UNL1        0.0701
     39 C          11.9434    1.0560    0.0000 C.2     1  UNL1        0.2188
     40 C          11.0391    0.6071    0.0000 C.2     1  UNL1       -0.0030
     41 C           9.6314    0.3891    0.0000 C.2     1  UNL1        0.3365
     42 C           5.1360   -0.2633    0.0000 C.3     1  UNL1        0.1226
     43 C          10.0501    4.8267    0.0000 C.ar    1  UNL1        0.2012
     44 C           7.9485    3.3301    0.0000 C.2     1  UNL1        0.3420
     45 C           8.4848    4.3052    0.0000 C.ar    1  UNL1       -0.0020
     46 C           9.1012    5.0648    0.0000 C.ar    1  UNL1        0.1628
     47 C           6.3772   -2.0952    0.0000 C.2     1  UNL1        0.3405
     48 C           6.9258    2.7885    0.0000 C.2     1  UNL1        0.3400
     49 C           6.8772   -2.9612    0.0000 C.ar    1  UNL1        0.0740
     50 C           5.3772   -2.0952    0.0000 C.2     1  UNL1        0.3401
     51 C           6.3772   -3.8273    0.0000 C.ar    1  UNL1        0.0458
     52 C           6.0618    3.2918    0.0000 C.ar    1  UNL1        0.0661
     53 C           4.8772   -2.9612    0.0000 C.ar    1  UNL1        0.0740
     54 C           5.3772   -3.8273    0.0000 C.ar    1  UNL1        0.0458
     55 C           7.9187   -2.9452    0.0000 C.ar    1  UNL1       -0.0017
     56 C           6.8840   -4.7373    0.0000 C.ar    1  UNL1        0.1708
     57 C           4.8703   -4.7373    0.0000 C.ar    1  UNL1        0.1708
     58 C           6.0656    4.2918    0.0000 C.ar    1  UNL1       -0.0023
     59 C           5.1938    2.7952    0.0000 C.ar    1  UNL1       -0.0023
     60 C           3.8357   -2.9452    0.0000 C.ar    1  UNL1       -0.0017
     61 C           8.4464   -3.8432    0.0000 C.ar    1  UNL1        0.1628
     62 C           7.9256   -4.7453    0.0000 C.ar    1  UNL1        0.2012
     63 C           3.8287   -4.7453    0.0000 C.ar    1  UNL1        0.2012
     64 C           3.3079   -3.8432    0.0000 C.ar    1  UNL1        0.1628
     65 C           4.3297    3.2985    0.0000 C.ar    1  UNL1        0.1628
     66 C           5.2015    4.7952    0.0000 C.ar    1  UNL1        0.1628
     67 C           4.3336    4.2985    0.0000 C.ar    1  UNL1        0.2006
     68 H           9.4288    1.9444    0.0000 H       1  UNL1        0.0439
     69 H          11.9052    2.9992    0.0000 H       1  UNL1        0.0802
     70 H           8.0627   -0.5573    0.0000 H       1  UNL1        0.0813
     71 H           7.4144   -0.9144    0.0000 H       1  UNL1        0.0801
     72 H           8.4061    1.2816    0.0000 H       1  UNL1        0.0837
     73 H           5.2659    0.6617    0.0000 H       1  UNL1        0.0670
     74 H           6.2235    2.3410    0.0000 H       1  UNL1        0.1098
     75 H          10.9977   -0.0115    0.0000 H       1  UNL1        0.0659
     76 H           4.9755    0.3356    0.0000 H       1  UNL1        0.0725
     77 H           4.5160   -0.2633    0.0000 H       1  UNL1        0.0725
     78 H           7.8688    4.3759    0.0000 H       1  UNL1        0.0663
     79 H          13.3349    2.5331    0.0000 H       1  UNL1        0.2133
     80 H          12.2608    3.4554    0.0000 H       1  UNL1        0.2133
     81 H          10.6330    6.1169    0.0000 H       1  UNL1        0.2924
     82 H           8.1778    6.1379    0.0000 H       1  UNL1        0.2923
     83 H           8.2225   -2.4047    0.0000 H       1  UNL1        0.0664
     84 H           6.6037    4.5998    0.0000 H       1  UNL1        0.0663
     85 H           5.1914    2.1752    0.0000 H       1  UNL1        0.0663
     86 H           3.5319   -2.4047    0.0000 H       1  UNL1        0.0664
     87 H           6.6778   -6.1379    0.0000 H       1  UNL1        0.2923
     88 H           5.0766   -6.1379    0.0000 H       1  UNL1        0.2923
     89 H           9.7585   -4.3751    0.0000 H       1  UNL1        0.2923
     90 H           9.0423   -5.6156    0.0000 H       1  UNL1        0.2924
     91 H           2.7121   -5.6156    0.0000 H       1  UNL1        0.2924
     92 H           2.0000   -3.3012    0.0000 H       1  UNL1        0.2923
     93 H           3.4594    2.1820    0.0000 H       1  UNL1        0.2923
     94 H           4.6696    6.1072    0.0000 H       1  UNL1        0.2923
     95 H           2.9314    4.4939    0.0000 H       1  UNL1        0.2924
@<TRIPOS>BOND
     1     1    28    1
     2     1    37    1
     3     2    34    1
     4     2    36    1
     5     3    29    1
     6     3    41    1
     7     4    36    1
     8     4    44    1
     9     5    30    1
    10     5    47    1
    11    31     6    1
    12     6    48    1
    13     7    33    1
    14     7    79    1
    15     8    33    1
    16     8    80    1
    17     9    42    1
    18     9    50    1
    19    10    39    2
    20    11    41    2
    21    12    43    1
    22    12    81    1
    23    13    44    2
    24    14    46    1
    25    14    82    1
    26    15    47    2
    27    16    48    2
    28    17    50    2
    29    18    56    1
    30    18    87    1
    31    19    57    1
    32    19    88    1
    33    20    61    1
    34    20    89    1
    35    21    62    1
    36    21    90    1
    37    22    63    1
    38    22    91    1
    39    23    64    1
    40    23    92    1
    41    24    65    1
    42    24    93    1
    43    25    66    1
    44    25    94    1
    45    26    67    1
    46    26    95    1
    47    27    28    1
    48    27    32    1
    49    27    35    1
    50    27    68    1
    51    28    33    1
    52    28    69    1
    53    29    30    1
    54    29    31    1
    55    29    70    1
    56    30    34    1
    57    30    71    1
    58    31    36    1
    59    31    72    1
    60    32    37   ar
    61    32    38   ar
    62    33    39    1
    63    34    42    1
    64    34    73    1
    65    35    40    2
    66    35    41    1
    67    36    74    1
    68    37    43   ar
    69    38    44    1
    70    38    45   ar
    71    39    40    1
    72    40    75    1
    73    42    76    1
    74    42    77    1
    75    43    46   ar
    76    45    46   ar
    77    45    78    1
    78    47    49    1
    79    48    52    1
    80    49    51   ar
    81    49    55   ar
    82    50    53    1
    83    51    54    1
    84    51    56   ar
    85    52    58   ar
    86    52    59   ar
    87    53    54   ar
    88    53    60   ar
    89    54    57   ar
    90    55    61   ar
    91    55    83    1
    92    56    62   ar
    93    57    63   ar
    94    58    66   ar
    95    58    84    1
    96    59    65   ar
    97    59    85    1
    98    60    64   ar
    99    60    86    1
   100    61    62   ar
   101    63    64   ar
   102    65    67   ar
   103    66    67   ar
