@<TRIPOS>MOLECULE
IMPHY001095
 58 63 0 0 0
SMALL
GASTEIGER

@<TRIPOS>ATOM
      1 O           6.0427   -1.2143    0.0000 O.2     1  UNL1       -0.4537
      2 O           6.9367    1.2510    0.0000 O.2     1  UNL1       -0.4537
      3 O           3.4446    1.2857    0.0000 O.3     1  UNL1       -0.5059
      4 O           3.4446    0.2857    0.0000 O.2     1  UNL1       -0.2863
      5 O           5.1767    4.2857    0.0000 O.3     1  UNL1       -0.5058
      6 O           2.5405   -1.2112    0.0000 O.3     1  UNL1       -0.5058
      7 O           6.9251    4.3202    0.0000 O.2     1  UNL1       -0.2869
      8 O           4.2986   -4.2836    0.0000 O.3     1  UNL1       -0.5065
      9 O           9.5068   -2.2143    0.0000 O.3     1  UNL1       -0.5068
     10 O          11.2991   -0.2485    0.0000 O.3     1  UNL1       -0.5068
     11 C           5.1767    0.2857    0.0000 C.ar    1  UNL1        0.0794
     12 C           5.1767    1.2857    0.0000 C.ar    1  UNL1        0.0739
     13 C           6.0427    1.7857    0.0000 C.ar    1  UNL1        0.1542
     14 C           6.0427   -0.2143    0.0000 C.ar    1  UNL1        0.1472
     15 C           6.0427    2.7857    0.0000 C.ar    1  UNL1        0.1061
     16 C           4.3107   -0.2143    0.0000 C.ar    1  UNL1        0.2045
     17 C           4.3107   -1.2143    0.0000 C.ar    1  UNL1        0.1061
     18 C           4.3107    1.7857    0.0000 C.ar    1  UNL1        0.1318
     19 C           5.1767   -1.7143    0.0000 C.ar    1  UNL1        0.1463
     20 C           5.1767    3.2857    0.0000 C.ar    1  UNL1        0.1347
     21 C           6.9088   -0.7143    0.0000 C.ar    1  UNL1        0.0182
     22 C           4.3107    2.7857    0.0000 C.ar    1  UNL1        0.0229
     23 C           6.9367    3.3203    0.0000 C.ar    1  UNL1        0.1966
     24 C           7.8427    1.7648    0.0000 C.ar    1  UNL1        0.1393
     25 C           3.4007   -1.7212    0.0000 C.ar    1  UNL1        0.1347
     26 C           7.8427    2.8065    0.0000 C.ar    1  UNL1        0.0288
     27 C           5.1928   -2.7558    0.0000 C.ar    1  UNL1        0.0231
     28 C           8.7068    1.2615    0.0000 C.ar    1  UNL1        0.0176
     29 C           3.3926   -2.7628    0.0000 C.ar    1  UNL1        0.0223
     30 C           4.2947   -3.2836    0.0000 C.ar    1  UNL1        0.1239
     31 C           6.9088   -1.7143    0.0000 C.ar    1  UNL1       -0.0476
     32 C           7.7748   -0.2143    0.0000 C.ar    1  UNL1       -0.0476
     33 C           7.7748   -2.2143    0.0000 C.ar    1  UNL1       -0.0195
     34 C           8.6408   -0.7143    0.0000 C.ar    1  UNL1       -0.0195
     35 C           8.7030    0.2615    0.0000 C.ar    1  UNL1       -0.0476
     36 C           9.5748    1.7582    0.0000 C.ar    1  UNL1       -0.0476
     37 C           8.6408   -1.7143    0.0000 C.ar    1  UNL1        0.1169
     38 C           9.5671   -0.2418    0.0000 C.ar    1  UNL1       -0.0195
     39 C          10.4389    1.2548    0.0000 C.ar    1  UNL1       -0.0195
     40 C          10.4350    0.2548    0.0000 C.ar    1  UNL1        0.1169
     41 H           3.7737    3.0957    0.0000 H       1  UNL1        0.0691
     42 H           8.3785    3.1185    0.0000 H       1  UNL1        0.0693
     43 H           5.7332   -3.0596    0.0000 H       1  UNL1        0.0691
     44 H           2.8545   -3.0707    0.0000 H       1  UNL1        0.0691
     45 H           6.3718   -2.0243    0.0000 H       1  UNL1        0.0626
     46 H           7.7748    0.4057    0.0000 H       1  UNL1        0.0626
     47 H           2.9077    1.5957    0.0000 H       1  UNL1        0.2922
     48 H           7.7748   -2.8343    0.0000 H       1  UNL1        0.0654
     49 H           9.1777   -0.4043    0.0000 H       1  UNL1        0.0654
     50 H           8.1648   -0.0464    0.0000 H       1  UNL1        0.0626
     51 H           9.5772    2.3782    0.0000 H       1  UNL1        0.0626
     52 H           4.6398    4.5957    0.0000 H       1  UNL1        0.2922
     53 H           2.0000   -1.5150    0.0000 H       1  UNL1        0.2922
     54 H           9.5647   -0.8618    0.0000 H       1  UNL1        0.0654
     55 H          10.9770    1.5628    0.0000 H       1  UNL1        0.0654
     56 H           3.7628   -4.5957    0.0000 H       1  UNL1        0.2921
     57 H          10.0438   -1.9043    0.0000 H       1  UNL1        0.2921
     58 H          11.8372    0.0594    0.0000 H       1  UNL1        0.2921
@<TRIPOS>BOND
     1     1    14   ar
     2     1    19   ar
     3     2    13   ar
     4     2    24   ar
     5     3    18    1
     6     3    47    1
     7     4    16    2
     8     5    20    1
     9     5    52    1
    10     6    25    1
    11     6    53    1
    12     7    23    2
    13     8    30    1
    14     8    56    1
    15     9    37    1
    16     9    57    1
    17    10    40    1
    18    10    58    1
    19    11    12    1
    20    11    14   ar
    21    11    16   ar
    22    12    13   ar
    23    12    18   ar
    24    13    15   ar
    25    14    21    1
    26    15    20   ar
    27    15    23   ar
    28    16    17   ar
    29    17    19   ar
    30    17    25   ar
    31    18    22   ar
    32    19    27   ar
    33    20    22   ar
    34    21    31   ar
    35    21    32   ar
    36    22    41    1
    37    23    26   ar
    38    24    26   ar
    39    24    28    1
    40    25    29   ar
    41    26    42    1
    42    27    30   ar
    43    27    43    1
    44    28    35   ar
    45    28    36   ar
    46    29    30   ar
    47    29    44    1
    48    31    33   ar
    49    31    45    1
    50    32    34   ar
    51    32    46    1
    52    33    37   ar
    53    33    48    1
    54    34    37   ar
    55    34    49    1
    56    35    38   ar
    57    35    50    1
    58    36    39   ar
    59    36    51    1
    60    38    40   ar
    61    38    54    1
    62    39    40   ar
    63    39    55    1
