@<TRIPOS>MOLECULE
IMPHY004536
 28 27 0 0 0
SMALL
GASTEIGER

@<TRIPOS>ATOM
      1 O           8.9282    0.4400    0.0000 O.3     1  UNL1       -0.4775
      2 O           8.0622   -1.0600    0.0000 O.2     1  UNL1       -0.2458
      3 C           5.4641    0.4400    0.0000 C.3     1  UNL1       -0.0281
      4 C           4.5981   -0.0600    0.0000 C.3     1  UNL1       -0.0308
      5 C           6.3301   -0.0600    0.0000 C.2     1  UNL1       -0.0656
      6 C           3.7320    0.4400    0.0000 C.2     1  UNL1       -0.0850
      7 C           2.8660   -0.0600    0.0000 C.2     1  UNL1       -0.0796
      8 C           6.3301   -1.0600    0.0000 C.3     1  UNL1       -0.0433
      9 C           7.1962    0.4400    0.0000 C.2     1  UNL1        0.0213
     10 C           2.0000    0.4400    0.0000 C.3     1  UNL1       -0.0440
     11 C           2.8660   -1.0600    0.0000 C.3     1  UNL1       -0.0440
     12 C           8.0622   -0.0600    0.0000 C.2     1  UNL1        0.3295
     13 H           5.8626    0.9149    0.0000 H       1  UNL1        0.0313
     14 H           5.0656    0.9149    0.0000 H       1  UNL1        0.0313
     15 H           4.1996   -0.5349    0.0000 H       1  UNL1        0.0310
     16 H           4.9966   -0.5349    0.0000 H       1  UNL1        0.0310
     17 H           3.7320    1.0600    0.0000 H       1  UNL1        0.0572
     18 H           5.7101   -1.0600    0.0000 H       1  UNL1        0.0274
     19 H           6.3301   -1.6800    0.0000 H       1  UNL1        0.0274
     20 H           6.9501   -1.0600    0.0000 H       1  UNL1        0.0274
     21 H           7.1962    1.0600    0.0000 H       1  UNL1        0.0688
     22 H           2.3100    0.9769    0.0000 H       1  UNL1        0.0274
     23 H           1.4631    0.7500    0.0000 H       1  UNL1        0.0274
     24 H           1.6900   -0.0969    0.0000 H       1  UNL1        0.0274
     25 H           2.2460   -1.0600    0.0000 H       1  UNL1        0.0274
     26 H           2.8660   -1.6800    0.0000 H       1  UNL1        0.0274
     27 H           3.4860   -1.0600    0.0000 H       1  UNL1        0.0274
     28 H           9.4651    0.1300    0.0000 H       1  UNL1        0.2954
@<TRIPOS>BOND
     1     1    12    1
     2     1    28    1
     3     2    12    2
     4     3     4    1
     5     3     5    1
     6     3    13    1
     7     3    14    1
     8     4     6    1
     9     4    15    1
    10     4    16    1
    11     5     8    1
    12     5     9    2
    13     6     7    2
    14     6    17    1
    15     7    10    1
    16     7    11    1
    17     8    18    1
    18     8    19    1
    19     8    20    1
    20     9    12    1
    21     9    21    1
    22    10    22    1
    23    10    23    1
    24    10    24    1
    25    11    25    1
    26    11    26    1
    27    11    27    1
