@<TRIPOS>MOLECULE
IMPHY007904
 27 29 0 0 0
SMALL
GASTEIGER

@<TRIPOS>ATOM
      1 O           6.9343    0.7500    0.0000 O.2     1  UNL1       -0.4030
      2 O           2.5381   -0.7742    0.0000 O.3     1  UNL1       -0.5067
      3 O           6.0682    2.2500    0.0000 O.2     1  UNL1       -0.2444
      4 N           6.0682   -0.7500    0.0000 N.ar    1  UNL1       -0.2116
      5 C           5.2022    0.7500    0.0000 C.ar    1  UNL1        0.0851
      6 C           5.2022   -0.2500    0.0000 C.ar    1  UNL1        0.0851
      7 C           6.9343   -0.2500    0.0000 C.ar    1  UNL1        0.2318
      8 C           7.8003   -0.7500    0.0000 C.ar    1  UNL1        0.0370
      9 C           4.3083   -0.7847    0.0000 C.ar    1  UNL1        0.0061
     10 C           4.3083    1.2847    0.0000 C.ar    1  UNL1       -0.0422
     11 C           6.0682    1.2500    0.0000 C.ar    1  UNL1        0.3478
     12 C           3.4022   -0.2708    0.0000 C.ar    1  UNL1        0.1189
     13 C           3.4022    0.7708    0.0000 C.ar    1  UNL1       -0.0193
     14 C           7.8003   -1.7500    0.0000 C.ar    1  UNL1       -0.0495
     15 C           8.6663   -0.2500    0.0000 C.ar    1  UNL1       -0.0495
     16 C           8.6663   -2.2500    0.0000 C.ar    1  UNL1       -0.0610
     17 C           9.5323   -0.7500    0.0000 C.ar    1  UNL1       -0.0610
     18 C           9.5323   -1.7500    0.0000 C.ar    1  UNL1       -0.0617
     19 H           4.3154   -1.4046    0.0000 H       1  UNL1        0.0676
     20 H           4.3154    1.9046    0.0000 H       1  UNL1        0.0627
     21 H           2.8665    1.0829    0.0000 H       1  UNL1        0.0654
     22 H           7.2634   -2.0600    0.0000 H       1  UNL1        0.0625
     23 H           8.6663    0.3700    0.0000 H       1  UNL1        0.0625
     24 H           8.6663   -2.8700    0.0000 H       1  UNL1        0.0618
     25 H          10.0693   -0.4400    0.0000 H       1  UNL1        0.0618
     26 H          10.0693   -2.0600    0.0000 H       1  UNL1        0.0618
     27 H           2.0000   -0.4662    0.0000 H       1  UNL1        0.2921
@<TRIPOS>BOND
     1     1     7   ar
     2     1    11   ar
     3     2    12    1
     4     2    27    1
     5     3    11    2
     6     4     6   ar
     7     4     7   ar
     8     5     6   ar
     9     5    10   ar
    10     5    11   ar
    11     6     9   ar
    12     7     8    1
    13     8    14   ar
    14     8    15   ar
    15     9    12   ar
    16     9    19    1
    17    10    13   ar
    18    10    20    1
    19    12    13   ar
    20    13    21    1
    21    14    16   ar
    22    14    22    1
    23    15    17   ar
    24    15    23    1
    25    16    18   ar
    26    16    24    1
    27    17    18   ar
    28    17    25    1
    29    18    26    1
