@<TRIPOS>MOLECULE
IMPHY012449
 104 109 0 0 0
SMALL
GASTEIGER

@<TRIPOS>ATOM
      1 O          11.2303    2.2922    0.0000 O.3     1  UNL1       -0.3877
      2 O           9.4651   -2.9114    0.0000 O.3     1  UNL1       -0.3454
      3 O           9.3361    5.9515    0.0000 O.3     1  UNL1       -0.3918
      4 O           7.7331   -2.9114    0.0000 O.3     1  UNL1       -0.3431
      5 O           9.4651   -4.9114    0.0000 O.3     1  UNL1       -0.3841
      6 O           7.7331   -5.9114    0.0000 O.3     1  UNL1       -0.3744
      7 O           6.0010   -4.9114    0.0000 O.3     1  UNL1       -0.3402
      8 O           5.1350   -3.4114    0.0000 O.3     1  UNL1       -0.3405
      9 O           4.2690   -5.9114    0.0000 O.3     1  UNL1       -0.3841
     10 O           2.5369   -4.9114    0.0000 O.3     1  UNL1       -0.3864
     11 O           2.5369   -2.9114    0.0000 O.3     1  UNL1       -0.3865
     12 O           5.1350   -1.4114    0.0000 O.3     1  UNL1       -0.3924
     13 C          10.3623    2.7888    0.0000 C.3     1  UNL1        0.0748
     14 C          10.3662    1.7888    0.0000 C.3     1  UNL1       -0.0083
     15 C           9.4944    3.2855    0.0000 C.3     1  UNL1        0.0022
     16 C           9.5021    1.2855    0.0000 C.3     1  UNL1       -0.0299
     17 C           9.4901    0.2439    0.0000 C.3     1  UNL1       -0.0259
     18 C           9.6999    4.2581    0.0000 C.3     1  UNL1       -0.0071
     19 C          10.3901   -0.2804    0.0000 C.3     1  UNL1       -0.0330
     20 C           8.6303    2.7821    0.0000 C.3     1  UNL1       -0.0444
     21 C           8.6342    1.7822    0.0000 C.3     1  UNL1       -0.0488
     22 C          11.0968    3.4587    0.0000 C.3     1  UNL1       -0.0229
     23 C          11.2781    1.2855    0.0000 C.3     1  UNL1       -0.0470
     24 C          10.6882    4.3650    0.0000 C.3     1  UNL1       -0.0447
     25 C          11.2902    0.2439    0.0000 C.3     1  UNL1       -0.0493
     26 C           8.5402   -0.2804    0.0000 C.3     1  UNL1       -0.0448
     27 C           8.6264    3.7821    0.0000 C.3     1  UNL1       -0.0566
     28 C          10.4027   -1.3653    0.0000 C.3     1  UNL1       -0.0232
     29 C           8.6260    0.7473    0.0000 C.3     1  UNL1       -0.0590
     30 C           9.0292    4.9998    0.0000 C.3     1  UNL1        0.0558
     31 C           8.5276   -1.3653    0.0000 C.3     1  UNL1       -0.0260
     32 C           9.4651   -1.9114    0.0000 C.3     1  UNL1        0.0621
     33 C           8.0514    4.7898    0.0000 C.3     1  UNL1       -0.0387
     34 C           8.5991   -3.4114    0.0000 C.3     1  UNL1        0.1881
     35 C           8.5991   -4.4114    0.0000 C.3     1  UNL1        0.1344
     36 C           7.7331   -4.9114    0.0000 C.3     1  UNL1        0.1174
     37 C           6.8671   -3.4114    0.0000 C.3     1  UNL1        0.0877
     38 C           6.8671   -4.4114    0.0000 C.3     1  UNL1        0.1162
     39 C           6.0010   -2.9114    0.0000 C.3     1  UNL1       -0.0360
     40 C           5.1350   -4.4114    0.0000 C.3     1  UNL1        0.1884
     41 C           8.5991   -6.4114    0.0000 C.3     1  UNL1        0.0370
     42 C           4.2690   -4.9114    0.0000 C.3     1  UNL1        0.1341
     43 C           3.4030   -4.4114    0.0000 C.3     1  UNL1        0.1141
     44 C           4.2690   -2.9114    0.0000 C.3     1  UNL1        0.1130
     45 C           3.4030   -3.4114    0.0000 C.3     1  UNL1        0.1119
     46 C           4.2690   -1.9114    0.0000 C.3     1  UNL1        0.0730
     47 H          10.8995    2.1050    0.0000 H       1  UNL1        0.0331
     48 H          10.0378    0.9734    0.0000 H       1  UNL1        0.0310
     49 H           9.9206    4.8375    0.0000 H       1  UNL1        0.0332
     50 H          10.9294   -0.5862    0.0000 H       1  UNL1        0.0307
     51 H           8.4160    3.3639    0.0000 H       1  UNL1        0.0272
     52 H           8.0201    2.6721    0.0000 H       1  UNL1        0.0272
     53 H           8.0232    1.8875    0.0000 H       1  UNL1        0.0268
     54 H           8.4244    1.1987    0.0000 H       1  UNL1        0.0268
     55 H          11.4642    2.9593    0.0000 H       1  UNL1        0.0293
     56 H          11.6321    3.7716    0.0000 H       1  UNL1        0.0293
     57 H          11.8902    1.1865    0.0000 H       1  UNL1        0.0269
     58 H          11.4804    1.8716    0.0000 H       1  UNL1        0.0269
     59 H          11.2770    4.5590    0.0000 H       1  UNL1        0.0270
     60 H          10.5571    4.9710    0.0000 H       1  UNL1        0.0270
     61 H          11.5060   -0.3373    0.0000 H       1  UNL1        0.0268
     62 H          11.8998    0.3571    0.0000 H       1  UNL1        0.0268
     63 H           8.3379    0.3057    0.0000 H       1  UNL1        0.0271
     64 H           7.9281   -0.3794    0.0000 H       1  UNL1        0.0271
     65 H           8.9344    4.3203    0.0000 H       1  UNL1        0.0236
     66 H           8.0883    4.0901    0.0000 H       1  UNL1        0.0236
     67 H           8.3185    3.2440    0.0000 H       1  UNL1        0.0236
     68 H          10.6185   -1.9465    0.0000 H       1  UNL1        0.0293
     69 H          11.0123   -1.2521    0.0000 H       1  UNL1        0.0293
     70 H           8.9380    1.2830    0.0000 H       1  UNL1        0.0235
     71 H           8.0902    1.0593    0.0000 H       1  UNL1        0.0235
     72 H           8.3139    0.2115    0.0000 H       1  UNL1        0.0235
     73 H           8.6133    5.4597    0.0000 H       1  UNL1        0.0593
     74 H           7.9180   -1.2521    0.0000 H       1  UNL1        0.0290
     75 H           8.3118   -1.9465    0.0000 H       1  UNL1        0.0290
     76 H          10.0027   -2.2204    0.0000 H       1  UNL1        0.0597
     77 H          11.7660    2.6042    0.0000 H       1  UNL1        0.2102
     78 H           7.9212    5.3960    0.0000 H       1  UNL1        0.0255
     79 H           7.4453    4.6596    0.0000 H       1  UNL1        0.0255
     80 H           8.1816    4.1836    0.0000 H       1  UNL1        0.0255
     81 H           8.9203    6.4114    0.0000 H       1  UNL1        0.2098
     82 H           8.5991   -2.7914    0.0000 H       1  UNL1        0.0937
     83 H           8.5991   -5.0314    0.0000 H       1  UNL1        0.0671
     84 H           7.1962   -5.2214    0.0000 H       1  UNL1        0.0650
     85 H           6.8671   -2.7914    0.0000 H       1  UNL1        0.0621
     86 H           6.3301   -4.1014    0.0000 H       1  UNL1        0.0650
     87 H          10.0021   -4.6014    0.0000 H       1  UNL1        0.2101
     88 H           6.3110   -2.3745    0.0000 H       1  UNL1        0.0255
     89 H           5.4641   -2.6014    0.0000 H       1  UNL1        0.0255
     90 H           5.6910   -3.4483    0.0000 H       1  UNL1        0.0255
     91 H           5.1350   -5.0314    0.0000 H       1  UNL1        0.0938
     92 H           8.2891   -6.9483    0.0000 H       1  UNL1        0.0524
     93 H           9.1360   -6.7214    0.0000 H       1  UNL1        0.0524
     94 H           8.9091   -5.8745    0.0000 H       1  UNL1        0.0524
     95 H           3.7320   -5.2214    0.0000 H       1  UNL1        0.0671
     96 H           2.8660   -4.1014    0.0000 H       1  UNL1        0.0648
     97 H           4.8059   -2.6014    0.0000 H       1  UNL1        0.0647
     98 H           3.4030   -2.7914    0.0000 H       1  UNL1        0.0647
     99 H           3.7320   -6.2214    0.0000 H       1  UNL1        0.2101
    100 H           4.0569   -1.3288    0.0000 H       1  UNL1        0.0584
    101 H           3.6584   -2.0191    0.0000 H       1  UNL1        0.0584
    102 H           2.0000   -4.6014    0.0000 H       1  UNL1        0.2100
    103 H           2.5369   -2.2914    0.0000 H       1  UNL1        0.2100
    104 H           5.1350   -0.7914    0.0000 H       1  UNL1        0.2095
@<TRIPOS>BOND
     1     1    13    1
     2     1    77    1
     3     2    32    1
     4     2    34    1
     5     3    30    1
     6     3    81    1
     7     4    34    1
     8     4    37    1
     9     5    35    1
    10     5    87    1
    11     6    36    1
    12     6    41    1
    13     7    38    1
    14     7    40    1
    15     8    40    1
    16     8    44    1
    17     9    42    1
    18     9    99    1
    19    10    43    1
    20    10   102    1
    21    11    45    1
    22    11   103    1
    23    12    46    1
    24    12   104    1
    25    13    14    1
    26    13    15    1
    27    13    22    1
    28    14    16    1
    29    14    23    1
    30    14    47    1
    31    15    18    1
    32    15    20    1
    33    15    27    1
    34    16    17    1
    35    16    21    1
    36    16    48    1
    37    17    19    1
    38    17    26    1
    39    17    29    1
    40    18    24    1
    41    18    30    1
    42    18    49    1
    43    19    25    1
    44    19    28    1
    45    19    50    1
    46    20    21    1
    47    20    51    1
    48    20    52    1
    49    21    53    1
    50    21    54    1
    51    22    24    1
    52    22    55    1
    53    22    56    1
    54    23    25    1
    55    23    57    1
    56    23    58    1
    57    24    59    1
    58    24    60    1
    59    25    61    1
    60    25    62    1
    61    26    31    1
    62    26    63    1
    63    26    64    1
    64    27    65    1
    65    27    66    1
    66    27    67    1
    67    28    32    1
    68    28    68    1
    69    28    69    1
    70    29    70    1
    71    29    71    1
    72    29    72    1
    73    30    33    1
    74    30    73    1
    75    31    32    1
    76    31    74    1
    77    31    75    1
    78    32    76    1
    79    33    78    1
    80    33    79    1
    81    33    80    1
    82    34    35    1
    83    34    82    1
    84    35    36    1
    85    35    83    1
    86    36    38    1
    87    36    84    1
    88    37    38    1
    89    37    39    1
    90    37    85    1
    91    38    86    1
    92    39    88    1
    93    39    89    1
    94    39    90    1
    95    40    42    1
    96    40    91    1
    97    41    92    1
    98    41    93    1
    99    41    94    1
   100    42    43    1
   101    42    95    1
   102    43    45    1
   103    43    96    1
   104    44    45    1
   105    44    46    1
   106    44    97    1
   107    45    98    1
   108    46   100    1
   109    46   101    1
