@<TRIPOS>MOLECULE
IMPHY017392
 31 31 0 0 0
SMALL
GASTEIGER

@<TRIPOS>ATOM
      1 O           5.5981   -2.5000    0.0000 O.2     1  UNL1       -0.2876
      2 O           3.8660    2.5000    0.0000 O.2     1  UNL1       -0.2930
      3 C           3.0000   -1.0000    0.0000 C.3     1  UNL1        0.0089
      4 C           3.8660   -0.5000    0.0000 C.2     1  UNL1       -0.0313
      5 C           3.0000   -2.0000    0.0000 C.2     1  UNL1       -0.0704
      6 C           2.0000   -1.0000    0.0000 C.3     1  UNL1       -0.0523
      7 C           2.5000   -0.1340    0.0000 C.3     1  UNL1       -0.0523
      8 C           4.7320   -1.0000    0.0000 C.2     1  UNL1        0.0002
      9 C           3.8660   -2.5000    0.0000 C.2     1  UNL1       -0.0178
     10 C           4.7320   -2.0000    0.0000 C.2     1  UNL1        0.1819
     11 C           3.8660    0.5000    0.0000 C.2     1  UNL1       -0.0541
     12 C           5.5981   -0.5000    0.0000 C.3     1  UNL1       -0.0358
     13 C           4.7320    1.0000    0.0000 C.2     1  UNL1       -0.0192
     14 C           4.7320    2.0000    0.0000 C.2     1  UNL1        0.1530
     15 C           5.5981    2.5000    0.0000 C.3     1  UNL1       -0.0020
     16 H           2.4631   -2.3100    0.0000 H       1  UNL1        0.0582
     17 H           2.0000   -0.3800    0.0000 H       1  UNL1        0.0241
     18 H           1.3800   -1.0000    0.0000 H       1  UNL1        0.0241
     19 H           2.0000   -1.6200    0.0000 H       1  UNL1        0.0241
     20 H           3.0369    0.1760    0.0000 H       1  UNL1        0.0241
     21 H           2.1900    0.4030    0.0000 H       1  UNL1        0.0241
     22 H           1.9631   -0.4440    0.0000 H       1  UNL1        0.0241
     23 H           3.8660   -3.1200    0.0000 H       1  UNL1        0.0653
     24 H           3.3291    0.8100    0.0000 H       1  UNL1        0.0622
     25 H           5.9081   -1.0369    0.0000 H       1  UNL1        0.0279
     26 H           6.1350   -0.1900    0.0000 H       1  UNL1        0.0279
     27 H           5.2881    0.0369    0.0000 H       1  UNL1        0.0279
     28 H           5.2690    0.6900    0.0000 H       1  UNL1        0.0652
     29 H           5.9081    1.9631    0.0000 H       1  UNL1        0.0309
     30 H           6.1350    2.8100    0.0000 H       1  UNL1        0.0309
     31 H           5.2881    3.0369    0.0000 H       1  UNL1        0.0309
@<TRIPOS>BOND
     1     1    10    2
     2     2    14    2
     3     3     4    1
     4     3     5    1
     5     3     6    1
     6     3     7    1
     7     4     8    2
     8     4    11    1
     9     5     9    2
    10     5    16    1
    11     6    17    1
    12     6    18    1
    13     6    19    1
    14     7    20    1
    15     7    21    1
    16     7    22    1
    17     8    10    1
    18     8    12    1
    19     9    10    1
    20     9    23    1
    21    11    13    2
    22    11    24    1
    23    12    25    1
    24    12    26    1
    25    12    27    1
    26    13    14    1
    27    13    28    1
    28    14    15    1
    29    15    29    1
    30    15    30    1
    31    15    31    1
