@<TRIPOS>MOLECULE
IMPHY001159
 35 34 0 0 0
SMALL
GASTEIGER

@<TRIPOS>ATOM
      1 O           2.8660    1.2500    0.0000 O.3     1  UNL1       -0.4677
      2 O           7.1962    1.7500    0.0000 O.3     1  UNL1       -0.4677
      3 O           3.7320    2.7500    0.0000 O.2     1  UNL1       -0.2505
      4 O           6.3301    0.2500    0.0000 O.2     1  UNL1       -0.2505
      5 O           2.8660   -1.7500    0.0000 O.3     1  UNL1       -0.4679
      6 O           4.5981   -1.7500    0.0000 O.2     1  UNL1       -0.2509
      7 C           4.5981    1.2500    0.0000 C.3     1  UNL1        0.0695
      8 C           5.4641    1.7500    0.0000 C.3     1  UNL1        0.0665
      9 C           4.5981    0.2500    0.0000 C.3     1  UNL1       -0.0293
     10 C           3.7320   -0.2500    0.0000 C.3     1  UNL1        0.0457
     11 C           5.4641    2.7500    0.0000 C.3     1  UNL1       -0.0515
     12 C           3.7320    1.7500    0.0000 C.2     1  UNL1        0.3107
     13 C           6.3301    1.2500    0.0000 C.2     1  UNL1        0.3105
     14 C           3.7320   -1.2500    0.0000 C.2     1  UNL1        0.3068
     15 C           2.0000    1.7500    0.0000 C.3     1  UNL1        0.0817
     16 C           8.0622    1.2500    0.0000 C.3     1  UNL1        0.0817
     17 C           2.8660   -2.7500    0.0000 C.3     1  UNL1        0.0817
     18 H           5.1350    0.9400    0.0000 H       1  UNL1        0.0421
     19 H           6.0010    2.0600    0.0000 H       1  UNL1        0.0419
     20 H           4.8101   -0.3326    0.0000 H       1  UNL1        0.0278
     21 H           5.2087    0.3577    0.0000 H       1  UNL1        0.0278
     22 H           3.5200    0.3326    0.0000 H       1  UNL1        0.0378
     23 H           3.1215   -0.3577    0.0000 H       1  UNL1        0.0378
     24 H           6.0841    2.7500    0.0000 H       1  UNL1        0.0238
     25 H           5.4641    3.3700    0.0000 H       1  UNL1        0.0238
     26 H           4.8441    2.7500    0.0000 H       1  UNL1        0.0238
     27 H           2.3100    2.2869    0.0000 H       1  UNL1        0.0661
     28 H           1.4631    2.0600    0.0000 H       1  UNL1        0.0661
     29 H           1.6900    1.2131    0.0000 H       1  UNL1        0.0661
     30 H           7.7522    0.7131    0.0000 H       1  UNL1        0.0661
     31 H           8.5991    0.9400    0.0000 H       1  UNL1        0.0661
     32 H           8.3722    1.7869    0.0000 H       1  UNL1        0.0661
     33 H           2.2460   -2.7500    0.0000 H       1  UNL1        0.0661
     34 H           2.8660   -3.3700    0.0000 H       1  UNL1        0.0661
     35 H           3.4860   -2.7500    0.0000 H       1  UNL1        0.0661
@<TRIPOS>BOND
     1     1    12    1
     2     1    15    1
     3     2    13    1
     4     2    16    1
     5     3    12    2
     6     4    13    2
     7     5    14    1
     8     5    17    1
     9     6    14    2
    10     7     8    1
    11     7     9    1
    12     7    12    1
    13     7    18    1
    14     8    11    1
    15     8    13    1
    16     8    19    1
    17     9    10    1
    18     9    20    1
    19     9    21    1
    20    10    14    1
    21    10    22    1
    22    10    23    1
    23    11    24    1
    24    11    25    1
    25    11    26    1
    26    15    27    1
    27    15    28    1
    28    15    29    1
    29    16    30    1
    30    16    31    1
    31    16    32    1
    32    17    33    1
    33    17    34    1
    34    17    35    1
