@<TRIPOS>MOLECULE
IMPHY000129
 103 109 0 0 0
SMALL
GASTEIGER

@<TRIPOS>ATOM
      1 O          11.2303    1.7904    0.0000 O.3     1  UNL1       -0.3877
      2 O          11.2542   -1.2855    0.0000 O.3     1  UNL1       -0.3875
      3 O           9.4651   -3.4132    0.0000 O.3     1  UNL1       -0.3453
      4 O           7.7580   -0.2512    0.0000 O.2     1  UNL1       -0.3003
      5 O           7.3807    5.0298    0.0000 O.2     1  UNL1       -0.4303
      6 O           7.7331   -3.4132    0.0000 O.3     1  UNL1       -0.3431
      7 O           9.4651   -5.4132    0.0000 O.3     1  UNL1       -0.3841
      8 O           7.0170    6.7232    0.0000 O.2     1  UNL1       -0.2452
      9 O           7.7331   -6.4132    0.0000 O.3     1  UNL1       -0.3864
     10 O           6.0010   -5.4132    0.0000 O.3     1  UNL1       -0.3402
     11 O           5.1350   -3.9132    0.0000 O.3     1  UNL1       -0.3405
     12 O           4.2690   -6.4132    0.0000 O.3     1  UNL1       -0.3841
     13 O           2.5369   -5.4132    0.0000 O.3     1  UNL1       -0.3864
     14 O           2.5369   -3.4132    0.0000 O.3     1  UNL1       -0.3865
     15 O           5.1350   -1.9132    0.0000 O.3     1  UNL1       -0.3924
     16 C          10.3623    2.2870    0.0000 C.3     1  UNL1        0.0751
     17 C          10.3662    1.2870    0.0000 C.3     1  UNL1       -0.0077
     18 C           9.4944    2.7837    0.0000 C.3     1  UNL1        0.0039
     19 C           9.5021    0.7837    0.0000 C.3     1  UNL1       -0.0208
     20 C           9.4901   -0.2579    0.0000 C.3     1  UNL1        0.0579
     21 C          10.3901   -0.7822    0.0000 C.3     1  UNL1        0.0807
     22 C           8.6303    2.2804    0.0000 C.3     1  UNL1       -0.0442
     23 C           8.6342    1.2804    0.0000 C.3     1  UNL1       -0.0483
     24 C           9.6999    3.7563    0.0000 C.3     1  UNL1       -0.0049
     25 C          11.2781    0.7837    0.0000 C.3     1  UNL1       -0.0447
     26 C          11.0968    2.9570    0.0000 C.3     1  UNL1       -0.0226
     27 C          11.2902   -0.2579    0.0000 C.3     1  UNL1       -0.0226
     28 C          10.6882    3.8632    0.0000 C.3     1  UNL1       -0.0429
     29 C           8.5402   -0.7822    0.0000 C.3     1  UNL1       -0.0357
     30 C          10.4027   -1.8671    0.0000 C.3     1  UNL1        0.0034
     31 C           8.6264    3.2803    0.0000 C.3     1  UNL1       -0.0564
     32 C           8.5276   -1.8671    0.0000 C.3     1  UNL1       -0.0254
     33 C           9.4651   -2.4132    0.0000 C.3     1  UNL1        0.0645
     34 C           8.6260    0.2455    0.0000 C.2     1  UNL1        0.1294
     35 C           9.0292    4.4980    0.0000 C.ar    1  UNL1       -0.0085
     36 C           9.3361    5.4497    0.0000 C.ar    1  UNL1       -0.0486
     37 C           8.0514    4.2880    0.0000 C.ar    1  UNL1        0.0994
     38 C           8.5991   -3.9132    0.0000 C.3     1  UNL1        0.1881
     39 C           8.6654    6.1914    0.0000 C.ar    1  UNL1        0.0233
     40 C           8.5991   -4.9132    0.0000 C.3     1  UNL1        0.1341
     41 C           7.6877    5.9815    0.0000 C.ar    1  UNL1        0.3367
     42 C           7.7331   -5.4132    0.0000 C.3     1  UNL1        0.1143
     43 C           6.8671   -3.9132    0.0000 C.3     1  UNL1        0.0877
     44 C           6.8671   -4.9132    0.0000 C.3     1  UNL1        0.1160
     45 C           6.0010   -3.4132    0.0000 C.3     1  UNL1       -0.0361
     46 C           5.1350   -4.9132    0.0000 C.3     1  UNL1        0.1884
     47 C           4.2690   -5.4132    0.0000 C.3     1  UNL1        0.1341
     48 C           3.4030   -4.9132    0.0000 C.3     1  UNL1        0.1141
     49 C           4.2690   -3.4132    0.0000 C.3     1  UNL1        0.1130
     50 C           3.4030   -3.9132    0.0000 C.3     1  UNL1        0.1119
     51 C           4.2690   -2.4132    0.0000 C.3     1  UNL1        0.0730
     52 H          11.0974    1.7205    0.0000 H       1  UNL1        0.0332
     53 H          10.2366    0.3559    0.0000 H       1  UNL1        0.0315
     54 H           8.0232    1.3857    0.0000 H       1  UNL1        0.0269
     55 H           8.4244    0.6969    0.0000 H       1  UNL1        0.0269
     56 H           8.4160    2.8621    0.0000 H       1  UNL1        0.0272
     57 H           8.0201    2.1703    0.0000 H       1  UNL1        0.0272
     58 H           9.9206    4.3357    0.0000 H       1  UNL1        0.0356
     59 H          11.8902    0.6847    0.0000 H       1  UNL1        0.0270
     60 H          11.4804    1.3698    0.0000 H       1  UNL1        0.0270
     61 H          11.4642    2.4575    0.0000 H       1  UNL1        0.0293
     62 H          11.6321    3.2698    0.0000 H       1  UNL1        0.0293
     63 H          11.5060   -0.8391    0.0000 H       1  UNL1        0.0293
     64 H          11.8998   -0.1447    0.0000 H       1  UNL1        0.0293
     65 H          11.2770    4.0572    0.0000 H       1  UNL1        0.0272
     66 H          10.5571    4.4692    0.0000 H       1  UNL1        0.0272
     67 H           8.3379   -0.1961    0.0000 H       1  UNL1        0.0276
     68 H           7.9281   -0.8812    0.0000 H       1  UNL1        0.0276
     69 H          10.6185   -2.4483    0.0000 H       1  UNL1        0.0318
     70 H          11.0123   -1.7539    0.0000 H       1  UNL1        0.0318
     71 H           8.9344    3.8185    0.0000 H       1  UNL1        0.0236
     72 H           8.0883    3.5883    0.0000 H       1  UNL1        0.0236
     73 H           8.3185    2.7422    0.0000 H       1  UNL1        0.0236
     74 H           7.9180   -1.7539    0.0000 H       1  UNL1        0.0290
     75 H           8.3118   -2.4483    0.0000 H       1  UNL1        0.0290
     76 H          10.0027   -2.7222    0.0000 H       1  UNL1        0.0598
     77 H           8.0902    0.5575    0.0000 H       1  UNL1        0.1033
     78 H          11.7660    2.1024    0.0000 H       1  UNL1        0.2102
     79 H          11.7923   -0.9776    0.0000 H       1  UNL1        0.2102
     80 H           9.9423    5.5799    0.0000 H       1  UNL1        0.0623
     81 H           7.8611    3.6980    0.0000 H       1  UNL1        0.1033
     82 H           8.5991   -3.2932    0.0000 H       1  UNL1        0.0937
     83 H           8.8558    6.7815    0.0000 H       1  UNL1        0.0689
     84 H           8.5991   -5.5332    0.0000 H       1  UNL1        0.0671
     85 H           7.1962   -5.7232    0.0000 H       1  UNL1        0.0648
     86 H           6.8671   -3.2932    0.0000 H       1  UNL1        0.0621
     87 H           6.3301   -4.6032    0.0000 H       1  UNL1        0.0650
     88 H          10.0021   -5.1032    0.0000 H       1  UNL1        0.2101
     89 H           6.3110   -2.8763    0.0000 H       1  UNL1        0.0255
     90 H           5.4641   -3.1032    0.0000 H       1  UNL1        0.0255
     91 H           5.6910   -3.9501    0.0000 H       1  UNL1        0.0255
     92 H           8.2700   -6.7232    0.0000 H       1  UNL1        0.2100
     93 H           5.1350   -5.5332    0.0000 H       1  UNL1        0.0938
     94 H           3.7320   -5.7232    0.0000 H       1  UNL1        0.0671
     95 H           2.8660   -4.6032    0.0000 H       1  UNL1        0.0648
     96 H           4.8059   -3.1032    0.0000 H       1  UNL1        0.0647
     97 H           3.4030   -3.2932    0.0000 H       1  UNL1        0.0647
     98 H           3.7320   -6.7232    0.0000 H       1  UNL1        0.2101
     99 H           4.0569   -1.8306    0.0000 H       1  UNL1        0.0584
    100 H           3.6584   -2.5208    0.0000 H       1  UNL1        0.0584
    101 H           2.0000   -5.1032    0.0000 H       1  UNL1        0.2100
    102 H           2.5369   -2.7932    0.0000 H       1  UNL1        0.2100
    103 H           5.1350   -1.2932    0.0000 H       1  UNL1        0.2095
@<TRIPOS>BOND
     1    16     1    1
     2     1    78    1
     3    21     2    1
     4     2    79    1
     5    33     3    1
     6    38     3    1
     7     4    34    2
     8     5    37   ar
     9     5    41   ar
    10     6    38    1
    11     6    43    1
    12    40     7    1
    13     7    88    1
    14     8    41    2
    15    42     9    1
    16     9    92    1
    17    44    10    1
    18    46    10    1
    19    11    46    1
    20    11    49    1
    21    47    12    1
    22    12    98    1
    23    48    13    1
    24    13   101    1
    25    50    14    1
    26    14   102    1
    27    15    51    1
    28    15   103    1
    29    16    17    1
    30    16    18    1
    31    16    26    1
    32    17    19    1
    33    17    25    1
    34    17    52    1
    35    18    22    1
    36    18    24    1
    37    18    31    1
    38    19    20    1
    39    19    23    1
    40    19    53    1
    41    20    21    1
    42    20    29    1
    43    20    34    1
    44    21    27    1
    45    21    30    1
    46    22    23    1
    47    22    56    1
    48    22    57    1
    49    23    54    1
    50    23    55    1
    51    24    28    1
    52    24    35    1
    53    24    58    1
    54    25    27    1
    55    25    59    1
    56    25    60    1
    57    26    28    1
    58    26    61    1
    59    26    62    1
    60    27    63    1
    61    27    64    1
    62    28    65    1
    63    28    66    1
    64    29    32    1
    65    29    67    1
    66    29    68    1
    67    30    33    1
    68    30    69    1
    69    30    70    1
    70    31    71    1
    71    31    72    1
    72    31    73    1
    73    32    33    1
    74    32    74    1
    75    32    75    1
    76    33    76    1
    77    34    77    1
    78    35    36   ar
    79    35    37   ar
    80    36    39   ar
    81    36    80    1
    82    37    81    1
    83    38    40    1
    84    38    82    1
    85    39    41   ar
    86    39    83    1
    87    40    42    1
    88    40    84    1
    89    42    44    1
    90    42    85    1
    91    43    44    1
    92    43    45    1
    93    43    86    1
    94    44    87    1
    95    45    89    1
    96    45    90    1
    97    45    91    1
    98    46    47    1
    99    46    93    1
   100    47    48    1
   101    47    94    1
   102    48    50    1
   103    48    95    1
   104    49    50    1
   105    49    51    1
   106    49    96    1
   107    50    97    1
   108    51    99    1
   109    51   100    1
