@<TRIPOS>MOLECULE
IMPHY015275
 19 18 0 0 0
SMALL
GASTEIGER

@<TRIPOS>ATOM
      1 N           2.0000    1.0000    0.0000 N.1     1  UNL1       -0.1963
      2 C           4.5981    0.5000    0.0000 C.3     1  UNL1       -0.0342
      3 C           3.7320    0.0000    0.0000 C.3     1  UNL1        0.0437
      4 C           5.4641    0.0000    0.0000 C.3     1  UNL1       -0.0339
      5 C           3.7320   -1.0000    0.0000 C.3     1  UNL1       -0.0495
      6 C           6.3301    0.5000    0.0000 C.2     1  UNL1       -0.0911
      7 C           2.8660    0.5000    0.0000 C.1     1  UNL1        0.0656
      8 C           7.1962   -0.0000    0.0000 C.2     1  UNL1       -0.1026
      9 H           4.9966    0.9749    0.0000 H       1  UNL1        0.0280
     10 H           4.1996    0.9749    0.0000 H       1  UNL1        0.0280
     11 H           3.7320    0.6200    0.0000 H       1  UNL1        0.0451
     12 H           5.0656   -0.4749    0.0000 H       1  UNL1        0.0308
     13 H           5.8626   -0.4749    0.0000 H       1  UNL1        0.0308
     14 H           3.1120   -1.0000    0.0000 H       1  UNL1        0.0242
     15 H           3.7320   -1.6200    0.0000 H       1  UNL1        0.0242
     16 H           4.3520   -1.0000    0.0000 H       1  UNL1        0.0242
     17 H           6.3301    1.1200    0.0000 H       1  UNL1        0.0566
     18 H           7.1962   -0.6200    0.0000 H       1  UNL1        0.0532
     19 H           7.7331    0.3100    0.0000 H       1  UNL1        0.0532
@<TRIPOS>BOND
     1     1     7    3
     2     2     3    1
     3     2     4    1
     4     2     9    1
     5     2    10    1
     6     3     5    1
     7     3     7    1
     8     3    11    1
     9     4     6    1
    10     4    12    1
    11     4    13    1
    12     5    14    1
    13     5    15    1
    14     5    16    1
    15     6     8    2
    16     6    17    1
    17     8    18    1
    18     8    19    1
