@<TRIPOS>MOLECULE
IMPHY010158
 58 61 0 0 0
SMALL
GASTEIGER

@<TRIPOS>ATOM
      1 O           4.2690   -1.3780    0.0000 O.3     1  UNL1       -0.3339
      2 O           6.0010   -1.3780    0.0000 O.3     1  UNL1       -0.4532
      3 O           4.2690   -4.3780    0.0000 O.3     1  UNL1       -0.3864
      4 O           2.5369   -3.3780    0.0000 O.3     1  UNL1       -0.3866
      5 O           6.0010   -3.3780    0.0000 O.3     1  UNL1       -0.3829
      6 O           6.8671    1.1220    0.0000 O.2     1  UNL1       -0.4507
      7 O           4.2690   -0.3780    0.0000 O.2     1  UNL1       -0.2830
      8 O           3.3648    1.1189    0.0000 O.3     1  UNL1       -0.5027
      9 O           3.3490    3.1672    0.0000 O.3     1  UNL1       -0.4885
     10 O           5.1229    4.1913    0.0000 O.3     1  UNL1       -0.4912
     11 O          10.3312   -1.8780    0.0000 O.3     1  UNL1       -0.5068
     12 C           4.2690   -3.3780    0.0000 C.3     1  UNL1        0.1151
     13 C           3.4030   -2.8780    0.0000 C.3     1  UNL1        0.1096
     14 C           5.1350   -2.8780    0.0000 C.3     1  UNL1        0.1454
     15 C           3.4030   -1.8780    0.0000 C.3     1  UNL1        0.0883
     16 C           5.1350   -1.8780    0.0000 C.3     1  UNL1        0.2311
     17 C           2.5369   -1.3780    0.0000 C.3     1  UNL1       -0.0360
     18 C           6.0010   -0.3780    0.0000 C.ar    1  UNL1        0.2138
     19 C           6.8671    0.1220    0.0000 C.ar    1  UNL1        0.1809
     20 C           5.1350    0.1220    0.0000 C.ar    1  UNL1        0.2383
     21 C           5.1350    1.1220    0.0000 C.ar    1  UNL1        0.1128
     22 C           6.0010    1.6220    0.0000 C.ar    1  UNL1        0.1468
     23 C           7.7331   -0.3780    0.0000 C.ar    1  UNL1        0.0213
     24 C           4.2250    1.6289    0.0000 C.ar    1  UNL1        0.1769
     25 C           6.0171    2.6636    0.0000 C.ar    1  UNL1        0.0270
     26 C           4.2170    2.6705    0.0000 C.ar    1  UNL1        0.2043
     27 C           5.1191    3.1913    0.0000 C.ar    1  UNL1        0.1687
     28 C           8.5991    0.1220    0.0000 C.ar    1  UNL1       -0.0475
     29 C           7.7331   -1.3780    0.0000 C.ar    1  UNL1       -0.0475
     30 C           9.4651   -0.3780    0.0000 C.ar    1  UNL1       -0.0195
     31 C           8.5991   -1.8780    0.0000 C.ar    1  UNL1       -0.0195
     32 C           9.4651   -1.3780    0.0000 C.ar    1  UNL1        0.1169
     33 C           3.3452    4.1671    0.0000 C.3     1  UNL1        0.0791
     34 C           5.9909    4.6880    0.0000 C.3     1  UNL1        0.0790
     35 H           4.8059   -3.6880    0.0000 H       1  UNL1        0.0648
     36 H           3.4030   -3.4980    0.0000 H       1  UNL1        0.0646
     37 H           5.6720   -2.5680    0.0000 H       1  UNL1        0.0683
     38 H           3.4030   -1.2580    0.0000 H       1  UNL1        0.0621
     39 H           5.1350   -1.2580    0.0000 H       1  UNL1        0.1084
     40 H           2.8469   -0.8410    0.0000 H       1  UNL1        0.0255
     41 H           2.0000   -1.0680    0.0000 H       1  UNL1        0.0255
     42 H           2.2269   -1.9149    0.0000 H       1  UNL1        0.0255
     43 H           3.7320   -4.6880    0.0000 H       1  UNL1        0.2100
     44 H           2.0000   -3.0680    0.0000 H       1  UNL1        0.2100
     45 H           6.0010   -3.9980    0.0000 H       1  UNL1        0.2102
     46 H           6.5576    2.9673    0.0000 H       1  UNL1        0.0692
     47 H           8.5991    0.7420    0.0000 H       1  UNL1        0.0626
     48 H           7.1962   -1.6880    0.0000 H       1  UNL1        0.0626
     49 H          10.0021   -0.0680    0.0000 H       1  UNL1        0.0654
     50 H           8.5991   -2.4980    0.0000 H       1  UNL1        0.0654
     51 H           2.8243    1.4227    0.0000 H       1  UNL1        0.2923
     52 H           3.9652    4.1695    0.0000 H       1  UNL1        0.0660
     53 H           3.3428    4.7871    0.0000 H       1  UNL1        0.0660
     54 H           2.7252    4.1648    0.0000 H       1  UNL1        0.0660
     55 H           6.2988    4.1498    0.0000 H       1  UNL1        0.0660
     56 H           6.5290    4.9959    0.0000 H       1  UNL1        0.0660
     57 H           5.6829    5.2261    0.0000 H       1  UNL1        0.0660
     58 H          10.8681   -1.5680    0.0000 H       1  UNL1        0.2921
@<TRIPOS>BOND
     1     1    15    1
     2     1    16    1
     3    16     2    1
     4     2    18    1
     5    12     3    1
     6     3    43    1
     7    13     4    1
     8     4    44    1
     9    14     5    1
    10     5    45    1
    11     6    19   ar
    12     6    22   ar
    13     7    20    2
    14     8    24    1
    15     8    51    1
    16     9    26    1
    17     9    33    1
    18    10    27    1
    19    10    34    1
    20    11    32    1
    21    11    58    1
    22    12    13    1
    23    12    14    1
    24    12    35    1
    25    13    15    1
    26    13    36    1
    27    14    16    1
    28    14    37    1
    29    15    17    1
    30    15    38    1
    31    16    39    1
    32    17    40    1
    33    17    41    1
    34    17    42    1
    35    18    19   ar
    36    18    20   ar
    37    19    23    1
    38    20    21   ar
    39    21    22   ar
    40    21    24   ar
    41    22    25   ar
    42    23    28   ar
    43    23    29   ar
    44    24    26   ar
    45    25    27   ar
    46    25    46    1
    47    26    27   ar
    48    28    30   ar
    49    28    47    1
    50    29    31   ar
    51    29    48    1
    52    30    32   ar
    53    30    49    1
    54    31    32   ar
    55    31    50    1
    56    33    52    1
    57    33    53    1
    58    33    54    1
    59    34    55    1
    60    34    56    1
    61    34    57    1
