@<TRIPOS>MOLECULE
IMPHY002682
 79 82 0 0 0
SMALL
GASTEIGER

@<TRIPOS>ATOM
      1 O           7.9174   -2.2390    0.0000 O.3     1  UNL1       -0.3837
      2 O          10.1248    0.7056    0.0000 O.3     1  UNL1       -0.3860
      3 O           2.5405   -1.1997    0.0000 O.3     1  UNL1       -0.3892
      4 O           2.5244   -3.2913    0.0000 O.3     1  UNL1       -0.3892
      5 O           6.1733   -4.3082    0.0000 O.2     1  UNL1       -0.2924
      6 O           8.8172    2.7111    0.0000 O.3     1  UNL1       -0.3886
      7 O          12.7312    3.5360    0.0000 O.3     1  UNL1       -0.3848
      8 C           7.9174   -0.2390    0.0000 C.3     1  UNL1        0.0061
      9 C           7.9174   -1.2390    0.0000 C.3     1  UNL1        0.0934
     10 C           8.8637    0.0657    0.0000 C.3     1  UNL1       -0.0015
     11 C           6.1854   -1.2390    0.0000 C.3     1  UNL1       -0.0107
     12 C           5.2754   -1.7458    0.0000 C.3     1  UNL1       -0.0132
     13 C           7.0514    0.2610    0.0000 C.3     1  UNL1       -0.0438
     14 C           7.0514   -1.7390    0.0000 C.2     1  UNL1       -0.0310
     15 C           8.8637   -1.5437    0.0000 C.3     1  UNL1       -0.0192
     16 C           6.1854   -0.2390    0.0000 C.3     1  UNL1       -0.0453
     17 C           9.4473   -0.7390    0.0000 C.3     1  UNL1       -0.0440
     18 C           5.2674   -2.7874    0.0000 C.3     1  UNL1        0.0299
     19 C           9.1743    1.0163    0.0000 C.3     1  UNL1        0.0927
     20 C           7.9174    0.7610    0.0000 C.3     1  UNL1       -0.0563
     21 C           4.3486   -1.1818    0.0000 C.3     1  UNL1       -0.0178
     22 C           7.0675   -2.7805    0.0000 C.2     1  UNL1       -0.0167
     23 C           4.3319   -3.3372    0.0000 C.3     1  UNL1       -0.0141
     24 C           5.2831   -0.7459    0.0000 C.3     1  UNL1       -0.0583
     25 C           6.1694   -3.3082    0.0000 C.2     1  UNL1        0.1598
     26 C           3.4007   -1.7097    0.0000 C.3     1  UNL1        0.0816
     27 C           3.3923   -2.7947    0.0000 C.3     1  UNL1        0.0817
     28 C           9.4850    1.9668    0.0000 C.3     1  UNL1        0.0876
     29 C           8.2238    1.3269    0.0000 C.3     1  UNL1       -0.0333
     30 C          10.4635    2.1730    0.0000 C.3     1  UNL1       -0.0005
     31 C          10.7742    3.1235    0.0000 C.2     1  UNL1       -0.0435
     32 C          11.7527    3.3297    0.0000 C.3     1  UNL1        0.0813
     33 C          10.1063    3.8678    0.0000 C.2     1  UNL1       -0.0967
     34 C          11.5464    4.3082    0.0000 C.3     1  UNL1       -0.0325
     35 C          11.9589    2.3512    0.0000 C.3     1  UNL1       -0.0325
     36 H           9.7034    0.1976    0.0000 H       1  UNL1        0.0336
     37 H           6.9215   -0.8140    0.0000 H       1  UNL1        0.0352
     38 H           7.4500    0.7360    0.0000 H       1  UNL1        0.0272
     39 H           6.6529    0.7360    0.0000 H       1  UNL1        0.0272
     40 H           8.6126   -2.1106    0.0000 H       1  UNL1        0.0296
     41 H           9.4010   -1.8530    0.0000 H       1  UNL1        0.0296
     42 H           5.9733    0.3436    0.0000 H       1  UNL1        0.0271
     43 H           5.5748   -0.3467    0.0000 H       1  UNL1        0.0271
     44 H           9.9081   -1.1537    0.0000 H       1  UNL1        0.0270
     45 H           9.9081   -0.3243    0.0000 H       1  UNL1        0.0270
     46 H           5.2706   -3.6374    0.0000 H       1  UNL1        0.0387
     47 H           8.5374    0.7610    0.0000 H       1  UNL1        0.0236
     48 H           7.9174    1.3810    0.0000 H       1  UNL1        0.0236
     49 H           7.2974    0.7610    0.0000 H       1  UNL1        0.0236
     50 H           4.7568   -0.7151    0.0000 H       1  UNL1        0.0297
     51 H           3.9586   -0.6997    0.0000 H       1  UNL1        0.0297
     52 H           7.6080   -3.0843    0.0000 H       1  UNL1        0.0653
     53 H           3.9346   -3.8131    0.0000 H       1  UNL1        0.0298
     54 H           4.7329   -3.8101    0.0000 H       1  UNL1        0.0298
     55 H           5.9031   -0.7506    0.0000 H       1  UNL1        0.0235
     56 H           5.2879   -0.1259    0.0000 H       1  UNL1        0.0235
     57 H           4.6631   -0.7411    0.0000 H       1  UNL1        0.0235
     58 H           2.8608   -2.0145    0.0000 H       1  UNL1        0.0619
     59 H           8.4544   -2.5490    0.0000 H       1  UNL1        0.2106
     60 H           2.8572   -2.4816    0.0000 H       1  UNL1        0.0619
     61 H           8.8783    1.8389    0.0000 H       1  UNL1        0.0625
     62 H           8.4164    1.9162    0.0000 H       1  UNL1        0.0258
     63 H           7.6345    1.5195    0.0000 H       1  UNL1        0.0258
     64 H           8.0312    0.7376    0.0000 H       1  UNL1        0.0258
     65 H          10.5863    1.1197    0.0000 H       1  UNL1        0.2103
     66 H          10.4841    1.5533    0.0000 H       1  UNL1        0.0337
     67 H          11.0773    2.0856    0.0000 H       1  UNL1        0.0337
     68 H           2.0000   -1.5035    0.0000 H       1  UNL1        0.2099
     69 H           2.5220   -3.9113    0.0000 H       1  UNL1        0.2099
     70 H           9.0098    3.3004    0.0000 H       1  UNL1        0.2099
     71 H          10.2989    4.4571    0.0000 H       1  UNL1        0.0535
     72 H           9.4996    3.7400    0.0000 H       1  UNL1        0.0535
     73 H          11.3522    2.2234    0.0000 H       1  UNL1        0.0260
     74 H          12.0867    1.7446    0.0000 H       1  UNL1        0.0260
     75 H          12.1531    4.4361    0.0000 H       1  UNL1        0.0260
     76 H          11.4186    4.9149    0.0000 H       1  UNL1        0.0260
     77 H          10.9398    4.1804    0.0000 H       1  UNL1        0.0260
     78 H          12.5656    2.4791    0.0000 H       1  UNL1        0.0260
     79 H          12.9238    4.1253    0.0000 H       1  UNL1        0.2106
@<TRIPOS>BOND
     1     9     1    1
     2     1    59    1
     3    19     2    1
     4     2    65    1
     5    26     3    1
     6     3    68    1
     7    27     4    1
     8     4    69    1
     9     5    25    2
    10    28     6    1
    11     6    70    1
    12     7    32    1
    13     7    79    1
    14     8     9    1
    15     8    10    1
    16     8    13    1
    17     8    20    1
    18     9    14    1
    19     9    15    1
    20    10    17    1
    21    10    19    1
    22    10    36    1
    23    11    12    1
    24    11    14    1
    25    11    16    1
    26    11    37    1
    27    12    18    1
    28    12    21    1
    29    12    24    1
    30    13    16    1
    31    13    38    1
    32    13    39    1
    33    14    22    2
    34    15    17    1
    35    15    40    1
    36    15    41    1
    37    16    42    1
    38    16    43    1
    39    17    44    1
    40    17    45    1
    41    18    23    1
    42    18    25    1
    43    18    46    1
    44    19    28    1
    45    19    29    1
    46    20    47    1
    47    20    48    1
    48    20    49    1
    49    21    26    1
    50    21    50    1
    51    21    51    1
    52    22    25    1
    53    22    52    1
    54    23    27    1
    55    23    53    1
    56    23    54    1
    57    24    55    1
    58    24    56    1
    59    24    57    1
    60    26    27    1
    61    26    58    1
    62    27    60    1
    63    28    30    1
    64    28    61    1
    65    29    62    1
    66    29    63    1
    67    29    64    1
    68    30    31    1
    69    30    66    1
    70    30    67    1
    71    31    32    1
    72    31    33    2
    73    32    34    1
    74    32    35    1
    75    33    71    1
    76    33    72    1
    77    34    75    1
    78    34    76    1
    79    34    77    1
    80    35    73    1
    81    35    74    1
    82    35    78    1
