@<TRIPOS>MOLECULE
IMPHY016848
 40 41 0 0 0
SMALL
GASTEIGER

@<TRIPOS>ATOM
      1 O           7.2067    1.7123    0.0000 O.3     1  UNL1       -0.3907
      2 C           5.4641   -1.3323    0.0000 C.3     1  UNL1       -0.0252
      3 C           5.4641   -0.3323    0.0000 C.3     1  UNL1       -0.0118
      4 C           4.5981   -1.8323    0.0000 C.3     1  UNL1       -0.0465
      5 C           4.5981    0.1677    0.0000 C.3     1  UNL1       -0.0394
      6 C           3.7320   -0.3323    0.0000 C.3     1  UNL1       -0.0198
      7 C           6.3580   -1.8669    0.0000 C.3     1  UNL1       -0.0436
      8 C           3.7320   -1.3323    0.0000 C.3     1  UNL1       -0.0460
      9 C           6.3580    0.2024    0.0000 C.2     1  UNL1       -0.0448
     10 C           5.4641   -2.3323    0.0000 C.3     1  UNL1       -0.0590
     11 C           7.2641   -1.3531    0.0000 C.3     1  UNL1       -0.0339
     12 C           7.2641   -0.3115    0.0000 C.2     1  UNL1       -0.0823
     13 C           2.8660    0.1677    0.0000 C.2     1  UNL1       -0.0766
     14 C           6.3465    1.2023    0.0000 C.3     1  UNL1        0.0656
     15 C           2.0000   -0.3323    0.0000 C.3     1  UNL1       -0.0438
     16 C           2.8660    1.1677    0.0000 C.2     1  UNL1       -0.0994
     17 H           5.4593    0.2877    0.0000 H       1  UNL1        0.0352
     18 H           4.1996   -2.3072    0.0000 H       1  UNL1        0.0271
     19 H           4.9966   -2.3072    0.0000 H       1  UNL1        0.0271
     20 H           4.9966    0.6427    0.0000 H       1  UNL1        0.0277
     21 H           4.1996    0.6427    0.0000 H       1  UNL1        0.0277
     22 H           3.7320    0.2877    0.0000 H       1  UNL1        0.0346
     23 H           5.9534   -2.3367    0.0000 H       1  UNL1        0.0274
     24 H           6.7517   -2.3460    0.0000 H       1  UNL1        0.0274
     25 H           3.1215   -1.2246    0.0000 H       1  UNL1        0.0271
     26 H           3.5200   -1.9149    0.0000 H       1  UNL1        0.0271
     27 H           4.8441   -2.3323    0.0000 H       1  UNL1        0.0235
     28 H           5.4641   -2.9523    0.0000 H       1  UNL1        0.0235
     29 H           6.0841   -2.3323    0.0000 H       1  UNL1        0.0235
     30 H           7.4732   -1.9368    0.0000 H       1  UNL1        0.0308
     31 H           7.8750   -1.2470    0.0000 H       1  UNL1        0.0308
     32 H           7.7998    0.0006    0.0000 H       1  UNL1        0.0572
     33 H           6.1277    1.7824    0.0000 H       1  UNL1        0.0604
     34 H           5.7372    1.0876    0.0000 H       1  UNL1        0.0604
     35 H           1.6900    0.2047    0.0000 H       1  UNL1        0.0274
     36 H           1.4631   -0.6423    0.0000 H       1  UNL1        0.0274
     37 H           2.3100   -0.8692    0.0000 H       1  UNL1        0.0274
     38 H           3.4030    1.4777    0.0000 H       1  UNL1        0.0534
     39 H           2.3291    1.4777    0.0000 H       1  UNL1        0.0534
     40 H           7.1995    2.3323    0.0000 H       1  UNL1        0.2098
@<TRIPOS>BOND
     1     1    14    1
     2     1    40    1
     3     2     3    1
     4     2     4    1
     5     2     7    1
     6     2    10    1
     7     3     5    1
     8     3     9    1
     9     3    17    1
    10     4     8    1
    11     4    18    1
    12     4    19    1
    13     5     6    1
    14     5    20    1
    15     5    21    1
    16     6     8    1
    17     6    13    1
    18     6    22    1
    19     7    11    1
    20     7    23    1
    21     7    24    1
    22     8    25    1
    23     8    26    1
    24     9    12    2
    25     9    14    1
    26    10    27    1
    27    10    28    1
    28    10    29    1
    29    11    12    1
    30    11    30    1
    31    11    31    1
    32    12    32    1
    33    13    15    1
    34    13    16    2
    35    14    33    1
    36    14    34    1
    37    15    35    1
    38    15    36    1
    39    15    37    1
    40    16    38    1
    41    16    39    1
