@<TRIPOS>MOLECULE
IMPHY006543
 29 30 0 0 0
SMALL
GASTEIGER

@<TRIPOS>ATOM
      1 O           2.0159   -1.6721    0.0000 O.3     1  UNL1       -0.4647
      2 O           3.7469   -1.6116    0.0000 O.2     1  UNL1       -0.2453
      3 C           5.4490    0.7317    0.0000 C.3     1  UNL1       -0.0247
      4 C           4.3089    1.6888    0.0000 C.3     1  UNL1       -0.0313
      5 C           4.0501    0.7229    0.0000 C.3     1  UNL1       -0.0037
      6 C           3.5723    2.6714    0.0000 C.3     1  UNL1       -0.0419
      7 C           2.2756    1.3777    0.0000 C.3     1  UNL1       -0.0306
      8 C           2.8290   -0.1427    0.0000 C.2     1  UNL1        0.0363
      9 C           5.9490   -0.1343    0.0000 C.3     1  UNL1       -0.0590
     10 C           6.3150    1.2317    0.0000 C.3     1  UNL1       -0.0590
     11 C           2.0000    0.4164    0.0000 C.2     1  UNL1       -0.0735
     12 C           2.8639   -1.1421    0.0000 C.2     1  UNL1        0.3349
     13 C           2.0508   -2.6714    0.0000 C.3     1  UNL1        0.0820
     14 H           4.9262    2.2731    0.0000 H       1  UNL1        0.0309
     15 H           4.3106   -0.0862    0.0000 H       1  UNL1        0.0356
     16 H           3.8901    3.2038    0.0000 H       1  UNL1        0.0274
     17 H           2.9591    2.7634    0.0000 H       1  UNL1        0.0274
     18 H           2.2706    1.9977    0.0000 H       1  UNL1        0.0310
     19 H           1.6613    1.4615    0.0000 H       1  UNL1        0.0310
     20 H           5.4121   -0.4443    0.0000 H       1  UNL1        0.0235
     21 H           6.2590   -0.6712    0.0000 H       1  UNL1        0.0235
     22 H           6.4859    0.1757    0.0000 H       1  UNL1        0.0235
     23 H           6.6250    0.6948    0.0000 H       1  UNL1        0.0235
     24 H           6.8520    1.5417    0.0000 H       1  UNL1        0.0235
     25 H           6.0050    1.7687    0.0000 H       1  UNL1        0.0235
     26 H           1.4174    0.2044    0.0000 H       1  UNL1        0.0577
     27 H           1.4312   -2.6931    0.0000 H       1  UNL1        0.0661
     28 H           2.0724   -3.2911    0.0000 H       1  UNL1        0.0661
     29 H           2.6704   -2.6498    0.0000 H       1  UNL1        0.0661
@<TRIPOS>BOND
     1     1    12    1
     2     1    13    1
     3     2    12    2
     4     3     4    1
     5     3     5    1
     6     3     9    1
     7     3    10    1
     8     4     6    1
     9     4     7    1
    10     4    14    1
    11     5     6    1
    12     5     8    1
    13     5    15    1
    14     6    16    1
    15     6    17    1
    16     7    11    1
    17     7    18    1
    18     7    19    1
    19     8    11    2
    20     8    12    1
    21     9    20    1
    22     9    21    1
    23     9    22    1
    24    10    23    1
    25    10    24    1
    26    10    25    1
    27    11    26    1
    28    13    27    1
    29    13    28    1
    30    13    29    1
