@<TRIPOS>MOLECULE
IMPHY017554
 24 25 0 0 0
SMALL
GASTEIGER

@<TRIPOS>ATOM
      1 O           8.1424    0.3047    0.0000 O.3     1  UNL1       -0.4526
      2 O           8.1424   -1.3047    0.0000 O.3     1  UNL1       -0.4526
      3 O           2.8660    1.5000    0.0000 O.2     1  UNL1       -0.2930
      4 C           7.1962    0.0000    0.0000 C.ar    1  UNL1        0.1668
      5 C           7.1962   -1.0000    0.0000 C.ar    1  UNL1        0.1663
      6 C           5.4641    0.0000    0.0000 C.ar    1  UNL1       -0.0212
      7 C           6.3301    0.5000    0.0000 C.ar    1  UNL1       -0.0090
      8 C           6.3301   -1.5000    0.0000 C.ar    1  UNL1       -0.0156
      9 C           5.4641   -1.0000    0.0000 C.ar    1  UNL1       -0.0509
     10 C           8.7260   -0.5000    0.0000 C.3     1  UNL1        0.2332
     11 C           4.5981    0.5000    0.0000 C.2     1  UNL1       -0.0512
     12 C           3.7320   -0.0000    0.0000 C.2     1  UNL1       -0.0189
     13 C           2.8660    0.5000    0.0000 C.2     1  UNL1        0.1531
     14 C           2.0000   -0.0000    0.0000 C.3     1  UNL1       -0.0020
     15 H           6.3301    1.1200    0.0000 H       1  UNL1        0.0661
     16 H           6.3301   -2.1200    0.0000 H       1  UNL1        0.0655
     17 H           4.9272   -1.3100    0.0000 H       1  UNL1        0.0625
     18 H           9.1868   -0.9147    0.0000 H       1  UNL1        0.1166
     19 H           9.1868   -0.0853    0.0000 H       1  UNL1        0.1166
     20 H           4.5981    1.1200    0.0000 H       1  UNL1        0.0624
     21 H           3.7320   -0.6200    0.0000 H       1  UNL1        0.0652
     22 H           1.6900    0.5369    0.0000 H       1  UNL1        0.0309
     23 H           1.4631   -0.3100    0.0000 H       1  UNL1        0.0309
     24 H           2.3100   -0.5369    0.0000 H       1  UNL1        0.0309
@<TRIPOS>BOND
     1     1     4    1
     2     1    10    1
     3     2     5    1
     4     2    10    1
     5     3    13    2
     6     4     5   ar
     7     4     7   ar
     8     5     8   ar
     9     6     7   ar
    10     6     9   ar
    11     6    11    1
    12     7    15    1
    13     8     9   ar
    14     8    16    1
    15     9    17    1
    16    10    18    1
    17    10    19    1
    18    11    12    2
    19    11    20    1
    20    12    13    1
    21    12    21    1
    22    13    14    1
    23    14    22    1
    24    14    23    1
    25    14    24    1
