@<TRIPOS>MOLECULE
IMPHY001381
 57 59 0 0 0
SMALL
GASTEIGER

@<TRIPOS>ATOM
      1 O           6.9059   -2.6775    0.0000 O.3     1  UNL1       -0.4819
      2 O           5.1357   -0.6187    0.0000 O.3     1  UNL1       -0.4499
      3 O           6.9174    0.3918    0.0000 O.3     1  UNL1       -0.4492
      4 O           8.6498    0.3987    0.0000 O.2     1  UNL1       -0.4216
      5 O           4.2639   -2.1153    0.0000 O.2     1  UNL1       -0.2453
      6 O           5.1855    0.4118    0.0000 O.2     1  UNL1       -0.2453
      7 O           9.5440    1.9264    0.0000 O.2     1  UNL1       -0.2452
      8 C           5.9998   -2.1637    0.0000 C.3     1  UNL1        0.1455
      9 C           5.9998   -1.1220    0.0000 C.3     1  UNL1        0.1831
     10 C           6.9059   -0.6082    0.0000 C.3     1  UNL1        0.1756
     11 C           7.7998   -1.1428    0.0000 C.ar    1  UNL1        0.0810
     12 C           7.7998   -2.1428    0.0000 C.ar    1  UNL1        0.1318
     13 C           5.5032   -3.0316    0.0000 C.3     1  UNL1       -0.0215
     14 C           4.9998   -2.1675    0.0000 C.3     1  UNL1       -0.0215
     15 C           8.6658   -0.6428    0.0000 C.ar    1  UNL1        0.1494
     16 C           8.6658   -2.6428    0.0000 C.ar    1  UNL1       -0.0187
     17 C           9.5319   -1.1428    0.0000 C.ar    1  UNL1        0.0182
     18 C           9.5319   -2.1428    0.0000 C.ar    1  UNL1       -0.0476
     19 C           4.2678   -1.1154    0.0000 C.2     1  UNL1        0.3351
     20 C           6.0573    0.9017    0.0000 C.2     1  UNL1        0.3353
     21 C          10.4419   -0.6360    0.0000 C.ar    1  UNL1       -0.0443
     22 C           9.5478    0.9264    0.0000 C.ar    1  UNL1        0.3372
     23 C          10.4499    0.4056    0.0000 C.ar    1  UNL1        0.0236
     24 C           3.4037   -0.6120    0.0000 C.2     1  UNL1        0.0294
     25 C           6.0688    1.9017    0.0000 C.2     1  UNL1        0.0294
     26 C           3.4075    0.3880    0.0000 C.3     1  UNL1       -0.0333
     27 C           2.5357   -1.1087    0.0000 C.2     1  UNL1       -0.0774
     28 C           6.9406    2.3916    0.0000 C.3     1  UNL1       -0.0333
     29 C           5.2086    2.4116    0.0000 C.2     1  UNL1       -0.0774
     30 C           2.5319   -2.1087    0.0000 C.3     1  UNL1       -0.0461
     31 C           4.3369    1.9217    0.0000 C.3     1  UNL1       -0.0461
     32 H           5.4623   -1.4310    0.0000 H       1  UNL1        0.0816
     33 H           6.3720   -0.2930    0.0000 H       1  UNL1        0.0827
     34 H           4.9650   -2.7237    0.0000 H       1  UNL1        0.0269
     35 H           5.1952   -3.5697    0.0000 H       1  UNL1        0.0269
     36 H           6.0413   -3.3395    0.0000 H       1  UNL1        0.0269
     37 H           4.9974   -1.5475    0.0000 H       1  UNL1        0.0269
     38 H           4.3798   -2.1699    0.0000 H       1  UNL1        0.0269
     39 H           5.0022   -2.7875    0.0000 H       1  UNL1        0.0269
     40 H           8.6658   -3.2628    0.0000 H       1  UNL1        0.0654
     41 H          10.0688   -2.4528    0.0000 H       1  UNL1        0.0626
     42 H          10.9752   -0.9522    0.0000 H       1  UNL1        0.0627
     43 H          10.9880    0.7135    0.0000 H       1  UNL1        0.0689
     44 H           4.0275    0.3856    0.0000 H       1  UNL1        0.0280
     45 H           3.4099    1.0080    0.0000 H       1  UNL1        0.0280
     46 H           2.7875    0.3904    0.0000 H       1  UNL1        0.0280
     47 H           2.0000   -0.7966    0.0000 H       1  UNL1        0.0574
     48 H           7.2443    1.8511    0.0000 H       1  UNL1        0.0280
     49 H           7.4810    2.6954    0.0000 H       1  UNL1        0.0280
     50 H           6.6368    2.9321    0.0000 H       1  UNL1        0.0280
     51 H           5.2158    3.0316    0.0000 H       1  UNL1        0.0574
     52 H           1.9119   -2.1063    0.0000 H       1  UNL1        0.0272
     53 H           2.5295   -2.7287    0.0000 H       1  UNL1        0.0272
     54 H           3.1519   -2.1111    0.0000 H       1  UNL1        0.0272
     55 H           4.0331    2.4622    0.0000 H       1  UNL1        0.0272
     56 H           3.7964    1.6179    0.0000 H       1  UNL1        0.0272
     57 H           4.6407    1.3812    0.0000 H       1  UNL1        0.0272
@<TRIPOS>BOND
     1     1     8    1
     2     1    12    1
     3     9     2    1
     4     2    19    1
     5    10     3    1
     6     3    20    1
     7     4    15   ar
     8     4    22   ar
     9     5    19    2
    10     6    20    2
    11     7    22    2
    12     8     9    1
    13     8    13    1
    14     8    14    1
    15     9    10    1
    16     9    32    1
    17    10    11    1
    18    10    33    1
    19    11    12   ar
    20    11    15   ar
    21    12    16   ar
    22    13    34    1
    23    13    35    1
    24    13    36    1
    25    14    37    1
    26    14    38    1
    27    14    39    1
    28    15    17   ar
    29    16    18   ar
    30    16    40    1
    31    17    18   ar
    32    17    21   ar
    33    18    41    1
    34    19    24    1
    35    20    25    1
    36    21    23   ar
    37    21    42    1
    38    22    23   ar
    39    23    43    1
    40    24    26    1
    41    24    27    2
    42    25    28    1
    43    25    29    2
    44    26    44    1
    45    26    45    1
    46    26    46    1
    47    27    30    1
    48    27    47    1
    49    28    48    1
    50    28    49    1
    51    28    50    1
    52    29    31    1
    53    29    51    1
    54    30    52    1
    55    30    53    1
    56    30    54    1
    57    31    55    1
    58    31    56    1
    59    31    57    1
