@<TRIPOS>MOLECULE
IMPHY012144
 24 24 0 0 0
SMALL
GASTEIGER

@<TRIPOS>ATOM
      1 C           3.7320    0.7500    0.0000 C.3     1  UNL1       -0.0279
      2 C           3.7320   -0.2500    0.0000 C.ar    1  UNL1       -0.0471
      3 C           4.5981    1.2500    0.0000 C.3     1  UNL1       -0.0519
      4 C           2.8660   -0.7500    0.0000 C.ar    1  UNL1       -0.0557
      5 C           2.8660   -1.7500    0.0000 C.ar    1  UNL1       -0.0502
      6 C           4.5981   -0.7500    0.0000 C.ar    1  UNL1       -0.0586
      7 C           4.5981    2.2500    0.0000 C.3     1  UNL1       -0.0650
      8 C           3.7320   -2.2500    0.0000 C.ar    1  UNL1       -0.0588
      9 C           4.5981   -1.7500    0.0000 C.ar    1  UNL1       -0.0613
     10 C           2.0000   -2.2500    0.0000 C.3     1  UNL1       -0.0397
     11 H           3.5200    1.3326    0.0000 H       1  UNL1        0.0313
     12 H           3.1215    0.6423    0.0000 H       1  UNL1        0.0313
     13 H           4.8101    0.6674    0.0000 H       1  UNL1        0.0266
     14 H           5.2087    1.3577    0.0000 H       1  UNL1        0.0266
     15 H           2.3291   -0.4400    0.0000 H       1  UNL1        0.0623
     16 H           5.1350   -0.4400    0.0000 H       1  UNL1        0.0620
     17 H           5.2181    2.2500    0.0000 H       1  UNL1        0.0230
     18 H           4.5981    2.8700    0.0000 H       1  UNL1        0.0230
     19 H           3.9781    2.2500    0.0000 H       1  UNL1        0.0230
     20 H           3.7320   -2.8700    0.0000 H       1  UNL1        0.0620
     21 H           5.1350   -2.0600    0.0000 H       1  UNL1        0.0618
     22 H           1.6900   -1.7131    0.0000 H       1  UNL1        0.0278
     23 H           1.4631   -2.5600    0.0000 H       1  UNL1        0.0278
     24 H           2.3100   -2.7869    0.0000 H       1  UNL1        0.0278
@<TRIPOS>BOND
     1     1     2    1
     2     1     3    1
     3     1    11    1
     4     1    12    1
     5     2     4   ar
     6     2     6   ar
     7     3     7    1
     8     3    13    1
     9     3    14    1
    10     4     5   ar
    11     4    15    1
    12     5     8   ar
    13     5    10    1
    14     6     9   ar
    15     6    16    1
    16     7    17    1
    17     7    18    1
    18     7    19    1
    19     8     9   ar
    20     8    20    1
    21     9    21    1
    22    10    22    1
    23    10    23    1
    24    10    24    1
