@<TRIPOS>MOLECULE
IMPHY017364
 26 25 0 0 0
SMALL
GASTEIGER

@<TRIPOS>ATOM
      1 C           5.4641   -0.2500    0.0000 C.3     1  UNL1       -0.0049
      2 C           6.3301    0.2500    0.0000 C.2     1  UNL1       -0.0731
      3 C           5.4641   -1.2500    0.0000 C.3     1  UNL1       -0.0552
      4 C           4.5981    0.2500    0.0000 C.2     1  UNL1       -0.0770
      5 C           7.1962   -0.2500    0.0000 C.3     1  UNL1       -0.0435
      6 C           3.7320   -0.2500    0.0000 C.2     1  UNL1       -0.0628
      7 C           6.3301    1.2500    0.0000 C.2     1  UNL1       -0.0992
      8 C           2.8660    0.2500    0.0000 C.2     1  UNL1       -0.0578
      9 C           2.0000   -0.2500    0.0000 C.3     1  UNL1       -0.0403
     10 C           2.8660    1.2500    0.0000 C.2     1  UNL1       -0.0958
     11 H           6.2002   -0.6750    0.0000 H       1  UNL1        0.0385
     12 H           4.8441   -1.2500    0.0000 H       1  UNL1        0.0238
     13 H           5.4641   -1.8700    0.0000 H       1  UNL1        0.0238
     14 H           6.0841   -1.2500    0.0000 H       1  UNL1        0.0238
     15 H           4.5981    0.8700    0.0000 H       1  UNL1        0.0578
     16 H           6.8862   -0.7869    0.0000 H       1  UNL1        0.0274
     17 H           7.7331   -0.5600    0.0000 H       1  UNL1        0.0274
     18 H           7.5062    0.2869    0.0000 H       1  UNL1        0.0274
     19 H           3.7320   -0.8700    0.0000 H       1  UNL1        0.0617
     20 H           6.8671    1.5600    0.0000 H       1  UNL1        0.0534
     21 H           5.7932    1.5600    0.0000 H       1  UNL1        0.0534
     22 H           1.6900    0.2869    0.0000 H       1  UNL1        0.0277
     23 H           1.4631   -0.5600    0.0000 H       1  UNL1        0.0277
     24 H           2.3100   -0.7869    0.0000 H       1  UNL1        0.0277
     25 H           3.4030    1.5600    0.0000 H       1  UNL1        0.0537
     26 H           2.3291    1.5600    0.0000 H       1  UNL1        0.0537
@<TRIPOS>BOND
     1     1     2    1
     2     1     3    1
     3     1     4    1
     4     1    11    1
     5     2     5    1
     6     2     7    2
     7     3    12    1
     8     3    13    1
     9     3    14    1
    10     4     6    2
    11     4    15    1
    12     5    16    1
    13     5    17    1
    14     5    18    1
    15     6     8    1
    16     6    19    1
    17     7    20    1
    18     7    21    1
    19     8     9    1
    20     8    10    2
    21     9    22    1
    22     9    23    1
    23     9    24    1
    24    10    25    1
    25    10    26    1
