@<TRIPOS>MOLECULE
IMPHY011265
 59 62 0 0 0
SMALL
GASTEIGER

@<TRIPOS>ATOM
      1 O           5.1350   -0.5000    0.0000 O.3     1  UNL1       -0.3313
      2 O           6.8671   -0.5000    0.0000 O.3     1  UNL1       -0.4601
      3 O           5.1350   -3.5000    0.0000 O.3     1  UNL1       -0.3864
      4 O           3.4030   -2.5000    0.0000 O.3     1  UNL1       -0.3865
      5 O           6.8671   -2.5000    0.0000 O.3     1  UNL1       -0.3829
      6 O           2.5369   -1.0000    0.0000 O.3     1  UNL1       -0.3924
      7 O           9.4651   -1.0000    0.0000 O.2     1  UNL1       -0.4620
      8 O           5.1350    2.5000    0.0000 O.3     1  UNL1       -0.4913
      9 O           6.8671    3.5000    0.0000 O.3     1  UNL1       -0.5033
     10 O           9.4651    2.0000    0.0000 O.2     1  UNL1       -0.2864
     11 O          12.9953    1.0241    0.0000 O.3     1  UNL1       -0.4914
     12 O          12.9953   -1.0241    0.0000 O.3     1  UNL1       -0.5032
     13 C           5.1350   -2.5000    0.0000 C.3     1  UNL1        0.1152
     14 C           4.2690   -2.0000    0.0000 C.3     1  UNL1        0.1120
     15 C           6.0010   -2.0000    0.0000 C.3     1  UNL1        0.1454
     16 C           4.2690   -1.0000    0.0000 C.3     1  UNL1        0.1140
     17 C           6.0010   -1.0000    0.0000 C.3     1  UNL1        0.2308
     18 C           3.4030   -0.5000    0.0000 C.3     1  UNL1        0.0731
     19 C           6.8671    0.5000    0.0000 C.ar    1  UNL1        0.1356
     20 C           7.7331    1.0000    0.0000 C.ar    1  UNL1        0.0342
     21 C           6.0010    1.0000    0.0000 C.ar    1  UNL1        0.0261
     22 C           8.5991    0.5000    0.0000 C.ar    1  UNL1        0.0679
     23 C           7.7331    2.0000    0.0000 C.ar    1  UNL1       -0.0051
     24 C           6.0010    2.0000    0.0000 C.ar    1  UNL1        0.1648
     25 C           6.8671    2.5000    0.0000 C.ar    1  UNL1        0.1593
     26 C           9.4651    1.0000    0.0000 C.ar    1  UNL1        0.2004
     27 C          10.3312    0.5000    0.0000 C.ar    1  UNL1        0.0682
     28 C           8.5991   -0.5000    0.0000 C.ar    1  UNL1        0.1040
     29 C          10.3312   -0.5000    0.0000 C.ar    1  UNL1        0.1421
     30 C          11.2251    1.0347    0.0000 C.ar    1  UNL1       -0.0019
     31 C          11.2251   -1.0347    0.0000 C.ar    1  UNL1        0.0265
     32 C          12.1312    0.5208    0.0000 C.ar    1  UNL1        0.1622
     33 C          12.1312   -0.5208    0.0000 C.ar    1  UNL1        0.1620
     34 C           4.2690    2.0000    0.0000 C.3     1  UNL1        0.0790
     35 C          12.9914    2.0241    0.0000 C.3     1  UNL1        0.0790
     36 H           5.6720   -2.8100    0.0000 H       1  UNL1        0.0648
     37 H           4.2690   -2.6200    0.0000 H       1  UNL1        0.0647
     38 H           6.5380   -1.6900    0.0000 H       1  UNL1        0.0683
     39 H           4.2690   -0.3800    0.0000 H       1  UNL1        0.0647
     40 H           6.0010   -0.3800    0.0000 H       1  UNL1        0.1084
     41 H           3.8015   -0.0251    0.0000 H       1  UNL1        0.0584
     42 H           3.0044   -0.0251    0.0000 H       1  UNL1        0.0584
     43 H           4.5981   -3.8100    0.0000 H       1  UNL1        0.2100
     44 H           3.4030   -3.1200    0.0000 H       1  UNL1        0.2100
     45 H           6.8671   -3.1200    0.0000 H       1  UNL1        0.2102
     46 H           2.0000   -0.6900    0.0000 H       1  UNL1        0.2095
     47 H           5.4641    0.6900    0.0000 H       1  UNL1        0.0692
     48 H           8.2700    2.3100    0.0000 H       1  UNL1        0.0662
     49 H           8.0622   -0.8100    0.0000 H       1  UNL1        0.1037
     50 H          11.2179    1.6546    0.0000 H       1  UNL1        0.0663
     51 H          11.2179   -1.6546    0.0000 H       1  UNL1        0.0692
     52 H           6.3301    3.8100    0.0000 H       1  UNL1        0.2923
     53 H           3.9590    2.5369    0.0000 H       1  UNL1        0.0660
     54 H           3.7320    1.6900    0.0000 H       1  UNL1        0.0660
     55 H           4.5790    1.4631    0.0000 H       1  UNL1        0.0660
     56 H          12.9929   -1.6442    0.0000 H       1  UNL1        0.2923
     57 H          13.6114    2.0265    0.0000 H       1  UNL1        0.0660
     58 H          12.9890    2.6441    0.0000 H       1  UNL1        0.0660
     59 H          12.3714    2.0218    0.0000 H       1  UNL1        0.0660
@<TRIPOS>BOND
     1     1    16    1
     2     1    17    1
     3    17     2    1
     4     2    19    1
     5    13     3    1
     6     3    43    1
     7    14     4    1
     8     4    44    1
     9    15     5    1
    10     5    45    1
    11     6    18    1
    12     6    46    1
    13     7    28   ar
    14     7    29   ar
    15     8    24    1
    16     8    34    1
    17     9    25    1
    18     9    52    1
    19    10    26    2
    20    11    32    1
    21    11    35    1
    22    12    33    1
    23    12    56    1
    24    13    14    1
    25    13    15    1
    26    13    36    1
    27    14    16    1
    28    14    37    1
    29    15    17    1
    30    15    38    1
    31    16    18    1
    32    16    39    1
    33    17    40    1
    34    18    41    1
    35    18    42    1
    36    19    20   ar
    37    19    21   ar
    38    20    22    1
    39    20    23   ar
    40    21    24   ar
    41    21    47    1
    42    22    26   ar
    43    22    28   ar
    44    23    25   ar
    45    23    48    1
    46    24    25   ar
    47    26    27   ar
    48    27    29   ar
    49    27    30   ar
    50    28    49    1
    51    29    31   ar
    52    30    32   ar
    53    30    50    1
    54    31    33   ar
    55    31    51    1
    56    32    33   ar
    57    34    53    1
    58    34    54    1
    59    34    55    1
    60    35    57    1
    61    35    58    1
    62    35    59    1
