@<TRIPOS>MOLECULE
IMPHY012374
 63 66 0 0 0
SMALL
GASTEIGER

@<TRIPOS>ATOM
      1 O           7.7331    2.9050    0.0000 O.3     1  UNL1       -0.3831
      2 O           6.0010    0.9050    0.0000 O.2     1  UNL1       -0.4701
      3 O           6.8671   -0.5950    0.0000 O.3     1  UNL1       -0.3095
      4 O          10.2629    1.4050    0.0000 O.3     1  UNL1       -0.4575
      5 O           5.1350   -0.5950    0.0000 O.3     1  UNL1       -0.3404
      6 O           6.8671   -2.5950    0.0000 O.3     1  UNL1       -0.3841
      7 O           5.1350   -3.5950    0.0000 O.3     1  UNL1       -0.3864
      8 O           6.0010    3.9050    0.0000 O.2     1  UNL1       -0.2958
      9 O           3.4030   -2.5950    0.0000 O.3     1  UNL1       -0.3865
     10 O          10.2629    3.1370    0.0000 O.2     1  UNL1       -0.2450
     11 O           2.5369   -1.0950    0.0000 O.3     1  UNL1       -0.3924
     12 O          14.7629    2.2710    0.0000 O.3     1  UNL1       -0.5068
     13 C           7.7331    0.9050    0.0000 C.3     1  UNL1        0.0607
     14 C           7.7331    1.9050    0.0000 C.3     1  UNL1        0.1089
     15 C           8.6793    0.6003    0.0000 C.3     1  UNL1        0.0049
     16 C           9.2629    1.4050    0.0000 C.3     1  UNL1        0.1094
     17 C           8.6793    2.2097    0.0000 C.3     1  UNL1        0.0184
     18 C           6.8671    0.4050    0.0000 C.3     1  UNL1        0.2096
     19 C           6.8671    2.4050    0.0000 C.2     1  UNL1        0.0579
     20 C           8.9900   -0.3503    0.0000 C.3     1  UNL1       -0.0585
     21 C           6.0010    1.9050    0.0000 C.2     1  UNL1        0.0968
     22 C           6.0010   -1.0950    0.0000 C.3     1  UNL1        0.1918
     23 C           6.0010   -2.0950    0.0000 C.3     1  UNL1        0.1342
     24 C           6.8671    3.4050    0.0000 C.2     1  UNL1        0.1519
     25 C           5.1350   -2.5950    0.0000 C.3     1  UNL1        0.1141
     26 C           4.2690   -2.0950    0.0000 C.3     1  UNL1        0.1119
     27 C           4.2690   -1.0950    0.0000 C.3     1  UNL1        0.1130
     28 C          10.7629    2.2710    0.0000 C.2     1  UNL1        0.3395
     29 C           3.4030   -0.5950    0.0000 C.3     1  UNL1        0.0730
     30 C          11.7629    2.2710    0.0000 C.ar    1  UNL1        0.0592
     31 C          12.2629    3.1370    0.0000 C.ar    1  UNL1       -0.0443
     32 C          12.2629    1.4050    0.0000 C.ar    1  UNL1       -0.0443
     33 C          13.2629    3.1370    0.0000 C.ar    1  UNL1       -0.0194
     34 C          13.2629    1.4050    0.0000 C.ar    1  UNL1       -0.0194
     35 C          13.7629    2.2710    0.0000 C.ar    1  UNL1        0.1169
     36 H           7.8230    0.0598    0.0000 H       1  UNL1        0.0397
     37 H           8.2418    0.1609    0.0000 H       1  UNL1        0.0339
     38 H           9.5446    1.9573    0.0000 H       1  UNL1        0.0738
     39 H           9.2167    2.5190    0.0000 H       1  UNL1        0.0332
     40 H           8.4283    2.7766    0.0000 H       1  UNL1        0.0332
     41 H           7.4040    0.0950    0.0000 H       1  UNL1        0.1060
     42 H           8.4006   -0.5429    0.0000 H       1  UNL1        0.0234
     43 H           9.1826   -0.9396    0.0000 H       1  UNL1        0.0234
     44 H           9.5793   -0.1576    0.0000 H       1  UNL1        0.0234
     45 H           8.2700    3.2150    0.0000 H       1  UNL1        0.2106
     46 H           5.4641    2.2150    0.0000 H       1  UNL1        0.1029
     47 H           6.5380   -1.4050    0.0000 H       1  UNL1        0.0939
     48 H           6.0010   -2.7150    0.0000 H       1  UNL1        0.0671
     49 H           7.4040    3.7150    0.0000 H       1  UNL1        0.1080
     50 H           4.5981   -2.9050    0.0000 H       1  UNL1        0.0648
     51 H           4.2690   -2.7150    0.0000 H       1  UNL1        0.0647
     52 H           4.2690   -0.4750    0.0000 H       1  UNL1        0.0647
     53 H           3.8015   -0.1201    0.0000 H       1  UNL1        0.0584
     54 H           3.0044   -0.1201    0.0000 H       1  UNL1        0.0584
     55 H           6.8671   -3.2150    0.0000 H       1  UNL1        0.2101
     56 H           4.5981   -3.9050    0.0000 H       1  UNL1        0.2100
     57 H           3.4030   -3.2150    0.0000 H       1  UNL1        0.2100
     58 H           2.0000   -0.7850    0.0000 H       1  UNL1        0.2095
     59 H          11.9529    3.6740    0.0000 H       1  UNL1        0.0627
     60 H          11.9529    0.8681    0.0000 H       1  UNL1        0.0627
     61 H          13.5729    3.6740    0.0000 H       1  UNL1        0.0654
     62 H          13.5729    0.8681    0.0000 H       1  UNL1        0.0654
     63 H          15.0729    2.8080    0.0000 H       1  UNL1        0.2921
@<TRIPOS>BOND
     1    14     1    1
     2     1    45    1
     3     2    18    1
     4     2    21    1
     5     3    18    1
     6    22     3    1
     7    16     4    1
     8     4    28    1
     9     5    22    1
    10     5    27    1
    11    23     6    1
    12     6    55    1
    13    25     7    1
    14     7    56    1
    15     8    24    2
    16    26     9    1
    17     9    57    1
    18    10    28    2
    19    11    29    1
    20    11    58    1
    21    12    35    1
    22    12    63    1
    23    13    14    1
    24    13    15    1
    25    13    18    1
    26    13    36    1
    27    14    17    1
    28    14    19    1
    29    15    16    1
    30    15    20    1
    31    15    37    1
    32    16    17    1
    33    16    38    1
    34    17    39    1
    35    17    40    1
    36    18    41    1
    37    19    21    2
    38    19    24    1
    39    20    42    1
    40    20    43    1
    41    20    44    1
    42    21    46    1
    43    22    23    1
    44    22    47    1
    45    23    25    1
    46    23    48    1
    47    24    49    1
    48    25    26    1
    49    25    50    1
    50    26    27    1
    51    26    51    1
    52    27    29    1
    53    27    52    1
    54    28    30    1
    55    29    53    1
    56    29    54    1
    57    30    31   ar
    58    30    32   ar
    59    31    33   ar
    60    31    59    1
    61    32    34   ar
    62    32    60    1
    63    33    35   ar
    64    33    61    1
    65    34    35   ar
    66    34    62    1
