@<TRIPOS>MOLECULE
IMPHY012263
 22 21 0 0 0
SMALL
GASTEIGER

@<TRIPOS>ATOM
      1 S1          6.0010   -0.0950    0.0000 S.O     1  <1>         0.0280
      2 O1          6.0010   -1.0950    0.0000 O.2     1  <1>        -0.2568
      3 O2          2.5369   -0.0950    0.0000 O.3     1  <1>        -0.4795
      4 O3          3.4030    1.4050    0.0000 O.2     1  <1>        -0.2492
      5 N1          4.2690   -1.0950    0.0000 N.3     1  <1>        -0.3177
      6 C1          5.1350    0.4050    0.0000 C.3     1  <1>         0.0492
      7 C2          4.2690   -0.0950    0.0000 C.3     1  <1>         0.1146
      8 C3          6.8671    0.4050    0.0000 C.3     1  <1>         0.0413
      9 C4          3.4030    0.4050    0.0000 C.2     1  <1>         0.3226
     10 C5          7.7331   -0.0950    0.0000 C.2     1  <1>        -0.0790
     11 C6          8.5991    0.4050    0.0000 C.2     1  <1>        -0.1018
     12 H1          5.5335    0.8799    0.0000 H       1  <1>         0.0422
     13 H2          4.7365    0.8799    0.0000 H       1  <1>         0.0422
     14 H3          4.8059   -0.4050    0.0000 H       1  <1>         0.0583
     15 H4          7.2656    0.8799    0.0000 H       1  <1>         0.0444
     16 H5          6.4685    0.8799    0.0000 H       1  <1>         0.0444
     17 H6          4.8059   -1.4050    0.0000 H       1  <1>         0.1190
     18 H7          3.7320   -1.4050    0.0000 H       1  <1>         0.1190
     19 H8          7.7331   -0.7150    0.0000 H       1  <1>         0.0575
     20 H9          2.0000    0.2150    0.0000 H       1  <1>         0.2951
     21 H10         9.1360    0.0950    0.0000 H       1  <1>         0.0532
     22 H11         8.5991    1.0250    0.0000 H       1  <1>         0.0532
@<TRIPOS>BOND
     1     1     2    2
     2     1     6    1
     3     1     8    1
     4     3     9    1
     5     3    20    1
     6     4     9    2
     7     7     5    1
     8     5    17    1
     9     5    18    1
    10     6     7    1
    11     6    12    1
    12     6    13    1
    13     7     9    1
    14     7    14    1
    15     8    10    1
    16     8    15    1
    17     8    16    1
    18    10    11    2
    19    10    19    1
    20    11    21    1
    21    11    22    1
