@<TRIPOS>MOLECULE
IMPHY011805
 23 23 0 0 0
SMALL
GASTEIGER

@<TRIPOS>ATOM
      1 O           4.2690    1.6550    0.0000 O.3     1  UNL1       -0.3865
      2 O           6.0010    0.6550    0.0000 O.3     1  UNL1       -0.3866
      3 O           2.5369    0.6550    0.0000 O.3     1  UNL1       -0.3866
      4 O           2.5369   -1.3450    0.0000 O.3     1  UNL1       -0.3891
      5 O           6.0010   -1.3450    0.0000 O.3     1  UNL1       -0.3891
      6 C           4.2690    0.6550    0.0000 C.3     1  UNL1        0.1116
      7 C           5.1350    0.1550    0.0000 C.3     1  UNL1        0.1094
      8 C           3.4030    0.1550    0.0000 C.3     1  UNL1        0.1094
      9 C           3.4030   -0.8450    0.0000 C.3     1  UNL1        0.0860
     10 C           5.1350   -0.8450    0.0000 C.3     1  UNL1        0.0860
     11 C           4.2690   -1.3450    0.0000 C.3     1  UNL1        0.0043
     12 H           4.8059    0.9650    0.0000 H       1  UNL1        0.0647
     13 H           5.6720   -0.1550    0.0000 H       1  UNL1        0.0646
     14 H           3.4030    0.7750    0.0000 H       1  UNL1        0.0646
     15 H           3.4030   -1.4650    0.0000 H       1  UNL1        0.0621
     16 H           5.1350   -1.4650    0.0000 H       1  UNL1        0.0621
     17 H           3.8705   -1.8200    0.0000 H       1  UNL1        0.0317
     18 H           4.6675   -1.8200    0.0000 H       1  UNL1        0.0317
     19 H           4.8059    1.9650    0.0000 H       1  UNL1        0.2100
     20 H           6.5380    0.3450    0.0000 H       1  UNL1        0.2100
     21 H           2.0000    0.3450    0.0000 H       1  UNL1        0.2100
     22 H           2.5369   -1.9650    0.0000 H       1  UNL1        0.2099
     23 H           6.0010   -1.9650    0.0000 H       1  UNL1        0.2099
@<TRIPOS>BOND
     1     1     6    1
     2     1    19    1
     3     7     2    1
     4     2    20    1
     5     8     3    1
     6     3    21    1
     7     9     4    1
     8     4    22    1
     9    10     5    1
    10     5    23    1
    11     6     7    1
    12     6     8    1
    13     6    12    1
    14     7    10    1
    15     7    13    1
    16     8     9    1
    17     8    14    1
    18     9    11    1
    19     9    15    1
    20    10    11    1
    21    10    16    1
    22    11    17    1
    23    11    18    1
