@<TRIPOS>MOLECULE
IMPHY002458
 39 41 0 0 0
SMALL
GASTEIGER

@<TRIPOS>ATOM
      1 O           2.0000   -1.6554    0.0000 O.3     1  UNL1       -0.3624
      2 O           3.7323   -2.6550    0.0000 O.3     1  UNL1       -0.3921
      3 O           5.5446    2.1497    0.0000 O.3     1  UNL1       -0.4533
      4 O           7.1282    1.3450    0.0000 O.2     1  UNL1       -0.2453
      5 C           2.8663   -1.1550    0.0000 C.3     1  UNL1        0.1188
      6 C           2.0003   -0.6550    0.0000 C.3     1  UNL1        0.0909
      7 C           3.7323   -0.6550    0.0000 C.3     1  UNL1       -0.0184
      8 C           2.0003    0.3450    0.0000 C.3     1  UNL1       -0.0201
      9 C           3.7323    0.3450    0.0000 C.3     1  UNL1       -0.0395
     10 C           3.7323   -1.6550    0.0000 C.3     1  UNL1        0.0757
     11 C           4.5983    0.8450    0.0000 C.3     1  UNL1        0.0312
     12 C           2.8663    0.8450    0.0000 C.3     1  UNL1       -0.0295
     13 C           4.5983    1.8450    0.0000 C.3     1  UNL1        0.1288
     14 C           2.8663    1.8450    0.0000 C.2     1  UNL1       -0.0730
     15 C           5.5446    0.5403    0.0000 C.2     1  UNL1        0.0364
     16 C           3.7323    2.3450    0.0000 C.2     1  UNL1       -0.0444
     17 C           6.1282    1.3450    0.0000 C.2     1  UNL1        0.3356
     18 C           2.0003    2.3450    0.0000 C.3     1  UNL1       -0.0437
     19 C           5.8552   -0.4103    0.0000 C.2     1  UNL1       -0.0883
     20 H           1.1503   -0.6549    0.0000 H       1  UNL1        0.0626
     21 H           3.9444   -1.2376    0.0000 H       1  UNL1        0.0295
     22 H           4.3429   -0.5473    0.0000 H       1  UNL1        0.0295
     23 H           1.7882    0.9276    0.0000 H       1  UNL1        0.0294
     24 H           1.3897    0.2373    0.0000 H       1  UNL1        0.0294
     25 H           3.5202    0.9276    0.0000 H       1  UNL1        0.0273
     26 H           3.1217    0.2373    0.0000 H       1  UNL1        0.0273
     27 H           4.3429   -1.7627    0.0000 H       1  UNL1        0.0587
     28 H           3.9444   -1.0724    0.0000 H       1  UNL1        0.0587
     29 H           4.6883   -0.0002    0.0000 H       1  UNL1        0.0390
     30 H           3.0783    0.2624    0.0000 H       1  UNL1        0.0311
     31 H           3.4769    0.9527    0.0000 H       1  UNL1        0.0311
     32 H           4.6883    2.6902    0.0000 H       1  UNL1        0.0785
     33 H           3.7323    2.9650    0.0000 H       1  UNL1        0.0608
     34 H           4.2692   -2.9650    0.0000 H       1  UNL1        0.2095
     35 H           2.3103    2.8819    0.0000 H       1  UNL1        0.0274
     36 H           1.4633    2.6550    0.0000 H       1  UNL1        0.0274
     37 H           1.6903    1.8081    0.0000 H       1  UNL1        0.0274
     38 H           5.4412   -0.8717    0.0000 H       1  UNL1        0.0540
     39 H           6.4619   -0.5381    0.0000 H       1  UNL1        0.0540
@<TRIPOS>BOND
     1     1     5    1
     2     1     6    1
     3     2    10    1
     4     2    34    1
     5     3    13    1
     6     3    17    1
     7     4    17    2
     8     5     6    1
     9     5     7    1
    10     5    10    1
    11     6     8    1
    12     6    20    1
    13     7     9    1
    14     7    21    1
    15     7    22    1
    16     8    12    1
    17     8    23    1
    18     8    24    1
    19     9    11    1
    20     9    25    1
    21     9    26    1
    22    10    27    1
    23    10    28    1
    24    11    13    1
    25    11    15    1
    26    11    29    1
    27    12    14    1
    28    12    30    1
    29    12    31    1
    30    13    16    1
    31    13    32    1
    32    14    16    2
    33    14    18    1
    34    15    17    1
    35    15    19    2
    36    16    33    1
    37    18    35    1
    38    18    36    1
    39    18    37    1
    40    19    38    1
    41    19    39    1
