@<TRIPOS>MOLECULE
IMPHY017110
 15 15 0 0 0
SMALL
GASTEIGER

@<TRIPOS>ATOM
      1 O           6.2633    0.4885    0.0000 O.2     1  UNL1       -0.2942
      2 N           3.7601   -0.4594    0.0000 N.ar    1  UNL1       -0.3561
      3 C           2.9511    0.1284    0.0000 C.ar    1  UNL1        0.0134
      4 CA          4.5691    0.1284    0.0000 C.ar    1  UNL1        0.0791
      5 C           3.2601    1.0794    0.0000 C.ar    1  UNL1       -0.0408
      6 C           4.2601    1.0794    0.0000 C.ar    1  UNL1       -0.0336
      7 C           2.0000   -0.1807    0.0000 C.3     1  UNL1       -0.0245
      8 C           5.5202   -0.1807    0.0000 C.2     1  UNL1        0.1663
      9 H           3.7601   -1.0794    0.0000 H       1  UNL1        0.1657
     10 H           2.8956    1.5810    0.0000 H       1  UNL1        0.0635
     11 H           4.6245    1.5810    0.0000 H       1  UNL1        0.0640
     12 H           1.8084    0.4090    0.0000 H       1  UNL1        0.0292
     13 H           1.4103   -0.3722    0.0000 H       1  UNL1        0.0292
     14 H           2.1916   -0.7703    0.0000 H       1  UNL1        0.0292
     15 H           5.6490   -0.7871    0.0000 H       1  UNL1        0.1097
@<TRIPOS>BOND
     1     1     8    2
     2     2     3   ar
     3     2     4   ar
     4     2     9    1
     5     3     5   ar
     6     3     7    1
     7     4     6   ar
     8     4     8    1
     9     5     6   ar
    10     5    10    1
    11     6    11    1
    12     7    12    1
    13     7    13    1
    14     7    14    1
    15     8    15    1
