@<TRIPOS>MOLECULE
IMPHY009499
 20 20 0 0 0
SMALL
GASTEIGER

@<TRIPOS>ATOM
      1 O           2.8660   -2.0000    0.0000 O.3     1  UNL1       -0.4951
      2 C           2.8660    1.0000    0.0000 C.ar    1  UNL1       -0.0254
      3 C           2.8660   -1.0000    0.0000 C.ar    1  UNL1        0.1201
      4 C           2.0000    0.5000    0.0000 C.ar    1  UNL1       -0.0512
      5 C           3.7320    0.5000    0.0000 C.ar    1  UNL1       -0.0512
      6 C           2.0000   -0.5000    0.0000 C.ar    1  UNL1       -0.0194
      7 C           3.7320   -0.5000    0.0000 C.ar    1  UNL1       -0.0194
      8 C           2.8660    2.0000    0.0000 C.2     1  UNL1       -0.0617
      9 C           2.0000   -2.5000    0.0000 C.3     1  UNL1        0.0788
     10 C           3.7320    2.5000    0.0000 C.2     1  UNL1       -0.0981
     11 H           1.4631    0.8100    0.0000 H       1  UNL1        0.0625
     12 H           4.2690    0.8100    0.0000 H       1  UNL1        0.0625
     13 H           1.4631   -0.8100    0.0000 H       1  UNL1        0.0654
     14 H           4.2690   -0.8100    0.0000 H       1  UNL1        0.0654
     15 H           2.3291    2.3100    0.0000 H       1  UNL1        0.0618
     16 H           1.6900   -1.9631    0.0000 H       1  UNL1        0.0660
     17 H           1.4631   -2.8100    0.0000 H       1  UNL1        0.0660
     18 H           2.3100   -3.0369    0.0000 H       1  UNL1        0.0660
     19 H           4.2690    2.1900    0.0000 H       1  UNL1        0.0535
     20 H           3.7320    3.1200    0.0000 H       1  UNL1        0.0535
@<TRIPOS>BOND
     1     1     3    1
     2     1     9    1
     3     2     4   ar
     4     2     5   ar
     5     2     8    1
     6     3     6   ar
     7     3     7   ar
     8     4     6   ar
     9     4    11    1
    10     5     7   ar
    11     5    12    1
    12     6    13    1
    13     7    14    1
    14     8    10    2
    15     8    15    1
    16     9    16    1
    17     9    17    1
    18     9    18    1
    19    10    19    1
    20    10    20    1
