@<TRIPOS>MOLECULE
IMPHY004983
 50 52 0 0 0
SMALL
GASTEIGER

@<TRIPOS>ATOM
      1 O           6.0836   -2.1288    0.0000 O.3     1  UNL1       -0.4803
      2 O           3.5000   -1.3240    0.0000 O.3     1  UNL1       -0.4549
      3 O           5.7730    0.4312    0.0000 O.3     1  UNL1       -0.4492
      4 O           7.8798    0.7175    0.0000 O.2     1  UNL1       -0.4216
      5 O           6.9297    1.7204    0.0000 O.2     1  UNL1       -0.2453
      6 O           3.5000   -3.0561    0.0000 O.2     1  UNL1       -0.2511
      7 O           8.7740    2.2452    0.0000 O.2     1  UNL1       -0.2452
      8 C           5.5000   -1.3240    0.0000 C.3     1  UNL1        0.1800
      9 C           4.5000   -1.3240    0.0000 C.3     1  UNL1        0.1482
     10 C           6.0836   -0.5193    0.0000 C.3     1  UNL1        0.1755
     11 C           7.0298   -0.8240    0.0000 C.ar    1  UNL1        0.0810
     12 C           7.0298   -1.8240    0.0000 C.ar    1  UNL1        0.1317
     13 C           4.5000   -2.3240    0.0000 C.3     1  UNL1       -0.0214
     14 C           4.5000   -0.3240    0.0000 C.3     1  UNL1       -0.0214
     15 C           7.8958   -0.3240    0.0000 C.ar    1  UNL1        0.1494
     16 C           7.8958   -2.3240    0.0000 C.ar    1  UNL1       -0.0187
     17 C           8.7619   -0.8240    0.0000 C.ar    1  UNL1        0.0182
     18 C           8.7619   -1.8240    0.0000 C.ar    1  UNL1       -0.0476
     19 C           5.9792    1.4097    0.0000 C.2     1  UNL1        0.3353
     20 C           3.0000   -2.1900    0.0000 C.2     1  UNL1        0.3046
     21 C           9.6719   -0.3172    0.0000 C.ar    1  UNL1       -0.0443
     22 C           8.7778    1.2452    0.0000 C.ar    1  UNL1        0.3372
     23 C           9.6799    0.7244    0.0000 C.ar    1  UNL1        0.0236
     24 C           5.2349    2.0776    0.0000 C.2     1  UNL1        0.0294
     25 C           2.0000   -2.1900    0.0000 C.3     1  UNL1        0.0333
     26 C           5.4411    3.0561    0.0000 C.3     1  UNL1       -0.0333
     27 C           4.2843    1.7669    0.0000 C.2     1  UNL1       -0.0774
     28 C           4.0781    0.7884    0.0000 C.3     1  UNL1       -0.0461
     29 H           5.1138   -2.0812    0.0000 H       1  UNL1        0.0815
     30 H           5.4711   -0.4231    0.0000 H       1  UNL1        0.0827
     31 H           3.8800   -2.3240    0.0000 H       1  UNL1        0.0269
     32 H           4.5000   -2.9440    0.0000 H       1  UNL1        0.0269
     33 H           5.1200   -2.3240    0.0000 H       1  UNL1        0.0269
     34 H           5.1200   -0.3240    0.0000 H       1  UNL1        0.0269
     35 H           4.5000    0.2960    0.0000 H       1  UNL1        0.0269
     36 H           3.8800   -0.3240    0.0000 H       1  UNL1        0.0269
     37 H           7.8958   -2.9440    0.0000 H       1  UNL1        0.0654
     38 H           9.2988   -2.1340    0.0000 H       1  UNL1        0.0626
     39 H          10.2052   -0.6334    0.0000 H       1  UNL1        0.0627
     40 H          10.2180    1.0324    0.0000 H       1  UNL1        0.0689
     41 H           2.0000   -1.5700    0.0000 H       1  UNL1        0.0342
     42 H           1.3800   -2.1900    0.0000 H       1  UNL1        0.0342
     43 H           2.0000   -2.8100    0.0000 H       1  UNL1        0.0342
     44 H           6.0478    2.9282    0.0000 H       1  UNL1        0.0280
     45 H           5.5689    3.6628    0.0000 H       1  UNL1        0.0280
     46 H           4.8344    3.1839    0.0000 H       1  UNL1        0.0280
     47 H           3.8229    2.1810    0.0000 H       1  UNL1        0.0574
     48 H           3.4714    0.9163    0.0000 H       1  UNL1        0.0272
     49 H           3.9503    0.1817    0.0000 H       1  UNL1        0.0272
     50 H           4.6848    0.6606    0.0000 H       1  UNL1        0.0272
@<TRIPOS>BOND
     1     1     8    1
     2     1    12    1
     3     2     9    1
     4     2    20    1
     5    10     3    1
     6     3    19    1
     7     4    15   ar
     8     4    22   ar
     9     5    19    2
    10     6    20    2
    11     7    22    2
    12     8     9    1
    13     8    10    1
    14     8    29    1
    15     9    13    1
    16     9    14    1
    17    10    11    1
    18    10    30    1
    19    11    12   ar
    20    11    15   ar
    21    12    16   ar
    22    13    31    1
    23    13    32    1
    24    13    33    1
    25    14    34    1
    26    14    35    1
    27    14    36    1
    28    15    17   ar
    29    16    18   ar
    30    16    37    1
    31    17    18   ar
    32    17    21   ar
    33    18    38    1
    34    19    24    1
    35    20    25    1
    36    21    23   ar
    37    21    39    1
    38    22    23   ar
    39    23    40    1
    40    24    26    1
    41    24    27    2
    42    25    41    1
    43    25    42    1
    44    25    43    1
    45    26    44    1
    46    26    45    1
    47    26    46    1
    48    27    28    1
    49    27    47    1
    50    28    48    1
    51    28    49    1
    52    28    50    1
