@<TRIPOS>MOLECULE
IMPHY014229
 72 73 0 0 0
SMALL
GASTEIGER

@<TRIPOS>ATOM
      1 O           3.7320    1.5662    0.0000 O.3     1  UNL1       -0.4605
      2 O           5.2320   -2.2998    0.0000 O.3     1  UNL1       -0.4570
      3 O           6.9720   -3.0664    0.0000 O.3     1  UNL1       -0.4635
      4 O           8.7622   -1.3239    0.0000 O.2     1  UNL1       -0.2964
      5 O           4.2320    4.1643    0.0000 O.3     1  UNL1       -0.3847
      6 O           2.8660    3.0662    0.0000 O.2     1  UNL1       -0.2512
      7 O           3.5000   -2.2998    0.0000 O.2     1  UNL1       -0.2511
      8 O           8.4619   -3.9497    0.0000 O.2     1  UNL1       -0.2512
      9 C           5.2320    0.7002    0.0000 C.3     1  UNL1        0.0291
     10 C           4.3660    0.2002    0.0000 C.3     1  UNL1       -0.0277
     11 C           6.0981    0.2002    0.0000 C.2     1  UNL1       -0.0557
     12 C           6.0981   -0.7998    0.0000 C.2     1  UNL1       -0.0134
     13 C           4.3660   -0.7998    0.0000 C.3     1  UNL1       -0.0082
     14 C           4.7320    1.5662    0.0000 C.3     1  UNL1        0.1152
     15 C           5.2320   -1.2998    0.0000 C.3     1  UNL1        0.1257
     16 C           6.9920   -1.3344    0.0000 C.3     1  UNL1        0.0846
     17 C           6.9920    0.7349    0.0000 C.3     1  UNL1       -0.0240
     18 C           5.7320    1.5662    0.0000 C.3     1  UNL1       -0.0522
     19 C           7.8981    0.2210    0.0000 C.3     1  UNL1        0.0105
     20 C           3.5000    0.7002    0.0000 C.3     1  UNL1       -0.0614
     21 C           5.2320    2.4323    0.0000 C.3     1  UNL1        0.0174
     22 C           7.8981   -0.8206    0.0000 C.2     1  UNL1        0.1468
     23 C           7.4820   -2.2062    0.0000 C.3     1  UNL1        0.1083
     24 C           6.4820   -2.1946    0.0000 C.3     1  UNL1       -0.0458
     25 C           4.7320    3.2983    0.0000 C.3     1  UNL1        0.0845
     26 C           3.7320    3.2983    0.0000 C.3     1  UNL1       -0.0323
     27 C           5.5981    3.7983    0.0000 C.2     1  UNL1       -0.0601
     28 C           2.8660    2.0662    0.0000 C.2     1  UNL1        0.3042
     29 C           4.3660   -2.7998    0.0000 C.2     1  UNL1        0.3045
     30 C           7.4619   -3.9381    0.0000 C.2     1  UNL1        0.3040
     31 C           2.0000    1.5662    0.0000 C.3     1  UNL1        0.0332
     32 C           4.3660   -3.7998    0.0000 C.3     1  UNL1        0.0333
     33 C           5.5981    4.7983    0.0000 C.2     1  UNL1       -0.1000
     34 C           6.9520   -4.7983    0.0000 C.3     1  UNL1        0.0332
     35 H           4.3660    0.8202    0.0000 H       1  UNL1        0.0309
     36 H           3.7554   -0.6921    0.0000 H       1  UNL1        0.0307
     37 H           4.1540   -1.3824    0.0000 H       1  UNL1        0.0307
     38 H           4.4220    1.0293    0.0000 H       1  UNL1        0.0744
     39 H           5.7690   -1.6098    0.0000 H       1  UNL1        0.0782
     40 H           7.3856    1.2139    0.0000 H       1  UNL1        0.0314
     41 H           6.5874    1.2047    0.0000 H       1  UNL1        0.0314
     42 H           6.2690    1.2562    0.0000 H       1  UNL1        0.0239
     43 H           6.0420    2.1032    0.0000 H       1  UNL1        0.0239
     44 H           5.1951    1.8762    0.0000 H       1  UNL1        0.0239
     45 H           8.5089    0.1150    0.0000 H       1  UNL1        0.0345
     46 H           8.1071    0.8047    0.0000 H       1  UNL1        0.0345
     47 H           3.8100    1.2372    0.0000 H       1  UNL1        0.0233
     48 H           2.9631    1.0102    0.0000 H       1  UNL1        0.0233
     49 H           3.1900    0.1633    0.0000 H       1  UNL1        0.0233
     50 H           5.7070    2.0338    0.0000 H       1  UNL1        0.0332
     51 H           5.7070    2.8308    0.0000 H       1  UNL1        0.0332
     52 H           7.9523   -2.6102    0.0000 H       1  UNL1        0.0710
     53 H           7.9615   -1.8132    0.0000 H       1  UNL1        0.0710
     54 H           5.9487   -1.8784    0.0000 H       1  UNL1        0.0243
     55 H           6.1658   -2.7279    0.0000 H       1  UNL1        0.0243
     56 H           7.0154   -2.5108    0.0000 H       1  UNL1        0.0243
     57 H           3.7321    3.9183    0.0000 H       1  UNL1        0.0260
     58 H           3.1120    3.2984    0.0000 H       1  UNL1        0.0260
     59 H           3.7320    2.6783    0.0000 H       1  UNL1        0.0260
     60 H           6.1350    3.4883    0.0000 H       1  UNL1        0.0594
     61 H           4.5420    4.7013    0.0000 H       1  UNL1        0.2106
     62 H           1.6900    2.1032    0.0000 H       1  UNL1        0.0342
     63 H           1.4631    1.2562    0.0000 H       1  UNL1        0.0342
     64 H           2.3100    1.0293    0.0000 H       1  UNL1        0.0342
     65 H           3.7460   -3.7998    0.0000 H       1  UNL1        0.0342
     66 H           4.3660   -4.4198    0.0000 H       1  UNL1        0.0342
     67 H           4.9860   -3.7998    0.0000 H       1  UNL1        0.0342
     68 H           6.1350    5.1083    0.0000 H       1  UNL1        0.0533
     69 H           5.0611    5.1083    0.0000 H       1  UNL1        0.0533
     70 H           6.4187   -4.4821    0.0000 H       1  UNL1        0.0342
     71 H           6.6358   -5.3316    0.0000 H       1  UNL1        0.0342
     72 H           7.4853   -5.1145    0.0000 H       1  UNL1        0.0342
@<TRIPOS>BOND
     1     1    14    1
     2     1    28    1
     3    15     2    1
     4     2    29    1
     5     3    23    1
     6     3    30    1
     7     4    22    2
     8     5    25    1
     9     5    61    1
    10     6    28    2
    11     7    29    2
    12     8    30    2
    13     9    10    1
    14     9    11    1
    15     9    14    1
    16     9    18    1
    17    10    13    1
    18    10    20    1
    19    10    35    1
    20    11    12    2
    21    11    17    1
    22    12    15    1
    23    12    16    1
    24    13    15    1
    25    13    36    1
    26    13    37    1
    27    14    21    1
    28    14    38    1
    29    15    39    1
    30    16    22    1
    31    16    23    1
    32    16    24    1
    33    17    19    1
    34    17    40    1
    35    17    41    1
    36    18    42    1
    37    18    43    1
    38    18    44    1
    39    19    22    1
    40    19    45    1
    41    19    46    1
    42    20    47    1
    43    20    48    1
    44    20    49    1
    45    21    25    1
    46    21    50    1
    47    21    51    1
    48    23    52    1
    49    23    53    1
    50    24    54    1
    51    24    55    1
    52    24    56    1
    53    25    26    1
    54    25    27    1
    55    26    57    1
    56    26    58    1
    57    26    59    1
    58    27    33    2
    59    27    60    1
    60    28    31    1
    61    29    32    1
    62    30    34    1
    63    31    62    1
    64    31    63    1
    65    31    64    1
    66    32    65    1
    67    32    66    1
    68    32    67    1
    69    33    68    1
    70    33    69    1
    71    34    70    1
    72    34    71    1
    73    34    72    1
