@<TRIPOS>MOLECULE
IMPHY016481
 24 25 0 0 0
SMALL
GASTEIGER

@<TRIPOS>ATOM
      1 O           2.8660   -1.0000    0.0000 O.2     1  UNL1       -0.4911
      2 O           4.5981   -2.0000    0.0000 O.2     1  UNL1       -0.2817
      3 O           4.5981    2.0000    0.0000 O.2     1  UNL1       -0.2871
      4 N           6.3580   -1.0347    0.0000 N.ar    1  UNL1       -0.2478
      5 C           5.4641    0.5000    0.0000 C.ar    1  UNL1        0.0510
      6 C           5.4641   -0.5000    0.0000 C.ar    1  UNL1        0.1251
      7 C           4.5981   -1.0000    0.0000 C.2     1  UNL1        0.2461
      8 C           4.5981    1.0000    0.0000 C.2     1  UNL1        0.1918
      9 C           6.3580    1.0347    0.0000 C.ar    1  UNL1       -0.0471
     10 C           3.7320   -0.5000    0.0000 C.2     1  UNL1        0.1723
     11 C           7.2641   -0.5208    0.0000 C.ar    1  UNL1        0.0391
     12 C           3.7320    0.5000    0.0000 C.2     1  UNL1        0.0313
     13 C           7.2641    0.5208    0.0000 C.ar    1  UNL1       -0.0399
     14 C           8.1282   -1.0241    0.0000 C.3     1  UNL1       -0.0223
     15 C           2.0000   -0.5000    0.0000 C.3     1  UNL1        0.0790
     16 H           6.3509    1.6546    0.0000 H       1  UNL1        0.0626
     17 H           3.1951    0.8100    0.0000 H       1  UNL1        0.0694
     18 H           7.7998    0.8329    0.0000 H       1  UNL1        0.0636
     19 H           7.8161   -1.5599    0.0000 H       1  UNL1        0.0292
     20 H           8.6639   -1.3362    0.0000 H       1  UNL1        0.0292
     21 H           8.4403   -0.4884    0.0000 H       1  UNL1        0.0292
     22 H           2.3100    0.0369    0.0000 H       1  UNL1        0.0660
     23 H           1.4631   -0.1900    0.0000 H       1  UNL1        0.0660
     24 H           1.6900   -1.0369    0.0000 H       1  UNL1        0.0660
@<TRIPOS>BOND
     1     1    10    1
     2     1    15    1
     3     2     7    2
     4     3     8    2
     5     4     6   ar
     6     4    11   ar
     7     5     6   ar
     8     5     8    1
     9     5     9   ar
    10     6     7    1
    11     7    10    1
    12     8    12    1
    13     9    13   ar
    14     9    16    1
    15    10    12    2
    16    11    13   ar
    17    11    14    1
    18    12    17    1
    19    13    18    1
    20    14    19    1
    21    14    20    1
    22    14    21    1
    23    15    22    1
    24    15    23    1
    25    15    24    1
