@<TRIPOS>MOLECULE
IMPHY006474
 26 27 0 0 0
SMALL
GASTEIGER

@<TRIPOS>ATOM
      1 C           4.5061    0.7785    0.0000 C.3     1  UNL1       -0.0130
      2 C           2.8746   -0.7795    0.0000 C.3     1  UNL1       -0.0278
      3 C           4.2473   -0.1874    0.0000 C.3     1  UNL1       -0.0169
      4 C           2.5326    0.1602    0.0000 C.3     1  UNL1       -0.0384
      5 C           3.7695    1.7611    0.0000 C.3     1  UNL1       -0.0374
      6 C           5.9051    0.2697    0.0000 C.2     1  UNL1       -0.0817
      7 C           5.6463   -0.6963    0.0000 C.2     1  UNL1       -0.0838
      8 C           4.7650    1.7444    0.0000 C.3     1  UNL1       -0.0561
      9 C           2.0000   -1.2643    0.0000 C.3     1  UNL1       -0.0593
     10 C           3.0654   -1.7611    0.0000 C.3     1  UNL1       -0.0593
     11 H           4.0273   -1.0085    0.0000 H       1  UNL1        0.0348
     12 H           2.3383    0.7490    0.0000 H       1  UNL1        0.0279
     13 H           1.9468   -0.0430    0.0000 H       1  UNL1        0.0279
     14 H           4.0873    2.2934    0.0000 H       1  UNL1        0.0279
     15 H           3.1564    1.8530    0.0000 H       1  UNL1        0.0279
     16 H           6.4550    0.5560    0.0000 H       1  UNL1        0.0575
     17 H           5.9326   -1.2462    0.0000 H       1  UNL1        0.0572
     18 H           5.3638    1.5839    0.0000 H       1  UNL1        0.0238
     19 H           4.9254    2.3433    0.0000 H       1  UNL1        0.0238
     20 H           4.1661    1.9049    0.0000 H       1  UNL1        0.0238
     21 H           1.6994   -0.7220    0.0000 H       1  UNL1        0.0235
     22 H           1.4577   -1.5649    0.0000 H       1  UNL1        0.0235
     23 H           2.3006   -1.8065    0.0000 H       1  UNL1        0.0235
     24 H           2.4568   -1.8794    0.0000 H       1  UNL1        0.0235
     25 H           3.1837   -2.3697    0.0000 H       1  UNL1        0.0235
     26 H           3.6740   -1.6428    0.0000 H       1  UNL1        0.0235
@<TRIPOS>BOND
     1     1     4    1
     2     1     5    1
     3     1     6    1
     4     1     8    1
     5     2     3    1
     6     2     4    1
     7     2     9    1
     8     2    10    1
     9     3     5    1
    10     3     7    1
    11     3    11    1
    12     4    12    1
    13     4    13    1
    14     5    14    1
    15     5    15    1
    16     6     7    2
    17     6    16    1
    18     7    17    1
    19     8    18    1
    20     8    19    1
    21     8    20    1
    22     9    21    1
    23     9    22    1
    24     9    23    1
    25    10    24    1
    26    10    25    1
    27    10    26    1
