@<TRIPOS>MOLECULE
IMPHY003775
 26 26 0 0 0
SMALL
GASTEIGER

@<TRIPOS>ATOM
      1 O           2.8660   -3.2500    0.0000 O.3     1  UNL1       -0.4951
      2 O           4.5981    2.7500    0.0000 O.3     1  UNL1       -0.4649
      3 O           2.8660    2.7500    0.0000 O.2     1  UNL1       -0.2456
      4 C           2.8660   -0.2500    0.0000 C.ar    1  UNL1       -0.0246
      5 C           2.0000   -0.7500    0.0000 C.ar    1  UNL1       -0.0511
      6 C           3.7320   -0.7500    0.0000 C.ar    1  UNL1       -0.0511
      7 C           2.8660   -2.2500    0.0000 C.ar    1  UNL1        0.1201
      8 C           2.0000   -1.7500    0.0000 C.ar    1  UNL1       -0.0194
      9 C           3.7320   -1.7500    0.0000 C.ar    1  UNL1       -0.0194
     10 C           2.8660    0.7500    0.0000 C.2     1  UNL1       -0.0478
     11 C           3.7320    1.2500    0.0000 C.2     1  UNL1        0.0230
     12 C           3.7320    2.2500    0.0000 C.2     1  UNL1        0.3317
     13 C           2.0000   -3.7500    0.0000 C.3     1  UNL1        0.0788
     14 C           4.5981    3.7500    0.0000 C.3     1  UNL1        0.0820
     15 H           1.4631   -0.4400    0.0000 H       1  UNL1        0.0625
     16 H           4.2690   -0.4400    0.0000 H       1  UNL1        0.0625
     17 H           1.4631   -2.0600    0.0000 H       1  UNL1        0.0654
     18 H           4.2690   -2.0600    0.0000 H       1  UNL1        0.0654
     19 H           2.3291    1.0600    0.0000 H       1  UNL1        0.0626
     20 H           4.2690    0.9400    0.0000 H       1  UNL1        0.0689
     21 H           1.6900   -3.2131    0.0000 H       1  UNL1        0.0660
     22 H           1.4631   -4.0600    0.0000 H       1  UNL1        0.0660
     23 H           2.3100   -4.2869    0.0000 H       1  UNL1        0.0660
     24 H           5.2181    3.7500    0.0000 H       1  UNL1        0.0661
     25 H           4.5981    4.3700    0.0000 H       1  UNL1        0.0661
     26 H           3.9781    3.7500    0.0000 H       1  UNL1        0.0661
@<TRIPOS>BOND
     1     1     7    1
     2     1    13    1
     3     2    12    1
     4     2    14    1
     5     3    12    2
     6     4     5   ar
     7     4     6   ar
     8     4    10    1
     9     5     8   ar
    10     5    15    1
    11     6     9   ar
    12     6    16    1
    13     7     8   ar
    14     7     9   ar
    15     8    17    1
    16     9    18    1
    17    10    11    2
    18    10    19    1
    19    11    12    1
    20    11    20    1
    21    13    21    1
    22    13    22    1
    23    13    23    1
    24    14    24    1
    25    14    25    1
    26    14    26    1
