@<TRIPOS>MOLECULE
IMPHY000682
 28 27 0 0 0
SMALL
GASTEIGER

@<TRIPOS>ATOM
      1 O           4.7690   -2.1165    0.0000 O.3     1  UNL1       -0.3773
      2 O           6.0010   -2.2505    0.0000 O.3     1  UNL1       -0.3805
      3 O           2.5369   -1.2505    0.0000 O.3     1  UNL1       -0.4786
      4 O           3.4030   -2.7505    0.0000 O.2     1  UNL1       -0.2478
      5 O           7.7331   -1.2505    0.0000 O.3     1  UNL1       -0.4788
      6 O           4.2690    2.2136    0.0000 O.3     1  UNL1       -0.4806
      7 O           6.8671    0.2495    0.0000 O.2     1  UNL1       -0.2481
      8 O           2.7690    1.3476    0.0000 O.2     1  UNL1       -0.2510
      9 C           4.2690   -1.2505    0.0000 C.3     1  UNL1        0.1652
     10 C           5.1350   -0.7505    0.0000 C.3     1  UNL1        0.0230
     11 C           3.7690   -0.3845    0.0000 C.3     1  UNL1       -0.0034
     12 C           6.0010   -1.2505    0.0000 C.3     1  UNL1        0.1545
     13 C           4.2690    0.4815    0.0000 C.3     1  UNL1        0.0479
     14 C           3.4030   -1.7505    0.0000 C.2     1  UNL1        0.3369
     15 C           6.8671   -0.7505    0.0000 C.2     1  UNL1        0.3337
     16 C           3.7690    1.3476    0.0000 C.2     1  UNL1        0.3048
     17 H           5.5335   -0.2756    0.0000 H       1  UNL1        0.0329
     18 H           4.7365   -0.2756    0.0000 H       1  UNL1        0.0329
     19 H           3.2940    0.0140    0.0000 H       1  UNL1        0.0304
     20 H           3.2940   -0.7830    0.0000 H       1  UNL1        0.0304
     21 H           6.7372   -1.6755    0.0000 H       1  UNL1        0.0711
     22 H           4.7439    0.0830    0.0000 H       1  UNL1        0.0378
     23 H           4.7439    0.8801    0.0000 H       1  UNL1        0.0378
     24 H           4.4590   -2.6535    0.0000 H       1  UNL1        0.2109
     25 H           6.5380   -2.5605    0.0000 H       1  UNL1        0.2105
     26 H           2.0000   -1.5605    0.0000 H       1  UNL1        0.2951
     27 H           8.2700   -0.9405    0.0000 H       1  UNL1        0.2951
     28 H           3.9590    2.7505    0.0000 H       1  UNL1        0.2951
@<TRIPOS>BOND
     1     1     9    1
     2     1    24    1
     3     2    12    1
     4     2    25    1
     5     3    14    1
     6     3    26    1
     7     4    14    2
     8     5    15    1
     9     5    27    1
    10     6    16    1
    11     6    28    1
    12     7    15    2
    13     8    16    2
    14     9    10    1
    15     9    11    1
    16     9    14    1
    17    10    12    1
    18    10    17    1
    19    10    18    1
    20    11    13    1
    21    11    19    1
    22    11    20    1
    23    12    15    1
    24    12    21    1
    25    13    16    1
    26    13    22    1
    27    13    23    1
