@<TRIPOS>MOLECULE
IMPHY000960
 84 87 0 0 0
SMALL
GASTEIGER

@<TRIPOS>ATOM
      1 O          10.4473   -0.8650    0.0000 O.3     1  UNL1       -0.3914
      2 O           5.3194    0.1350    0.0000 O.2     1  UNL1       -0.2968
      3 O          10.1248    0.5796    0.0000 O.3     1  UNL1       -0.3810
      4 O           2.5405   -1.3257    0.0000 O.3     1  UNL1       -0.3842
      5 O           8.8172    2.5851    0.0000 O.2     1  UNL1       -0.2943
      6 O           2.5244   -3.4173    0.0000 O.2     1  UNL1       -0.2937
      7 O          10.1063    3.7418    0.0000 O.3     1  UNL1       -0.3886
      8 O          12.7312    3.4099    0.0000 O.3     1  UNL1       -0.3866
      9 C           7.9174   -1.3650    0.0000 C.3     1  UNL1       -0.0195
     10 C           7.9174   -0.3650    0.0000 C.3     1  UNL1       -0.0115
     11 C           7.0514   -1.8650    0.0000 C.3     1  UNL1       -0.0190
     12 C           6.1854   -1.3650    0.0000 C.3     1  UNL1        0.0364
     13 C           8.8637   -0.0603    0.0000 C.3     1  UNL1        0.0268
     14 C           8.8637   -1.6697    0.0000 C.3     1  UNL1       -0.0202
     15 C           9.4473   -0.8650    0.0000 C.3     1  UNL1        0.0621
     16 C           7.0514    0.1350    0.0000 C.3     1  UNL1        0.0127
     17 C           5.2754   -1.8719    0.0000 C.3     1  UNL1       -0.0039
     18 C           6.1854   -0.3650    0.0000 C.2     1  UNL1        0.1406
     19 C           7.0675   -2.9065    0.0000 C.3     1  UNL1       -0.0302
     20 C           7.9174   -2.3650    0.0000 C.3     1  UNL1       -0.0587
     21 C           7.9174    0.6350    0.0000 C.3     1  UNL1       -0.0582
     22 C           9.1743    0.8902    0.0000 C.3     1  UNL1        0.1265
     23 C           5.2674   -2.9135    0.0000 C.2     1  UNL1       -0.0565
     24 C           5.3194   -0.8650    0.0000 C.3     1  UNL1       -0.0520
     25 C           4.3486   -1.3078    0.0000 C.3     1  UNL1       -0.0124
     26 C           6.1694   -3.4343    0.0000 C.2     1  UNL1       -0.0832
     27 C           4.3319   -3.4632    0.0000 C.3     1  UNL1        0.0471
     28 C           3.4007   -1.8357    0.0000 C.3     1  UNL1        0.1144
     29 C           8.2238    1.2009    0.0000 C.3     1  UNL1       -0.0287
     30 C           9.4850    1.8408    0.0000 C.2     1  UNL1        0.1672
     31 C           3.3923   -2.9207    0.0000 C.2     1  UNL1        0.1710
     32 C           3.8353   -4.3311    0.0000 C.3     1  UNL1       -0.0492
     33 C           4.8353   -4.3273    0.0000 C.3     1  UNL1       -0.0492
     34 C          10.4635    2.0470    0.0000 C.3     1  UNL1        0.0374
     35 C          10.7742    2.9975    0.0000 C.3     1  UNL1        0.0901
     36 C          11.7527    3.2037    0.0000 C.3     1  UNL1        0.0866
     37 C          11.5464    4.1822    0.0000 C.3     1  UNL1       -0.0339
     38 C          11.9589    2.2252    0.0000 C.3     1  UNL1       -0.0339
     39 H           7.7908   -2.2843    0.0000 H       1  UNL1        0.0319
     40 H           8.2639    0.5421    0.0000 H       1  UNL1        0.0363
     41 H           8.6126   -2.2366    0.0000 H       1  UNL1        0.0296
     42 H           9.4010   -1.9790    0.0000 H       1  UNL1        0.0296
     43 H           9.7290   -1.4173    0.0000 H       1  UNL1        0.0597
     44 H           7.4500    0.6099    0.0000 H       1  UNL1        0.0347
     45 H           6.6529    0.6099    0.0000 H       1  UNL1        0.0347
     46 H           6.0066   -2.3053    0.0000 H       1  UNL1        0.0356
     47 H           7.2855   -3.4869    0.0000 H       1  UNL1        0.0311
     48 H           7.6766   -2.7910    0.0000 H       1  UNL1        0.0311
     49 H           7.2974   -2.3650    0.0000 H       1  UNL1        0.0235
     50 H           7.9174   -2.9850    0.0000 H       1  UNL1        0.0235
     51 H           8.5374   -2.3650    0.0000 H       1  UNL1        0.0235
     52 H           8.5374    0.6350    0.0000 H       1  UNL1        0.0235
     53 H           7.9174    1.2550    0.0000 H       1  UNL1        0.0235
     54 H           7.2974    0.6350    0.0000 H       1  UNL1        0.0235
     55 H           5.6294   -0.3281    0.0000 H       1  UNL1        0.0239
     56 H           4.7824   -0.5550    0.0000 H       1  UNL1        0.0239
     57 H           5.0094   -1.4020    0.0000 H       1  UNL1        0.0239
     58 H           4.7568   -0.8411    0.0000 H       1  UNL1        0.0300
     59 H           3.9586   -0.8257    0.0000 H       1  UNL1        0.0300
     60 H           6.1718   -4.0543    0.0000 H       1  UNL1        0.0572
     61 H          10.7573   -1.4020    0.0000 H       1  UNL1        0.2098
     62 H           3.4090   -1.2158    0.0000 H       1  UNL1        0.0673
     63 H           8.4164    1.7902    0.0000 H       1  UNL1        0.0262
     64 H           7.6345    1.3935    0.0000 H       1  UNL1        0.0262
     65 H           8.0312    0.6116    0.0000 H       1  UNL1        0.0262
     66 H          10.5863    0.9936    0.0000 H       1  UNL1        0.2107
     67 H           4.2995   -4.6393    0.0000 H       1  UNL1        0.0242
     68 H           5.1473   -4.8630    0.0000 H       1  UNL1        0.0242
     69 H           5.3710   -4.0152    0.0000 H       1  UNL1        0.0242
     70 H           3.2972   -4.0232    0.0000 H       1  UNL1        0.0242
     71 H           3.5274   -4.8692    0.0000 H       1  UNL1        0.0242
     72 H           4.3734   -4.6390    0.0000 H       1  UNL1        0.0242
     73 H          10.4841    1.4273    0.0000 H       1  UNL1        0.0369
     74 H          11.0773    1.9596    0.0000 H       1  UNL1        0.0369
     75 H           2.0000   -1.6295    0.0000 H       1  UNL1        0.2104
     76 H          11.0382    3.8054    0.0000 H       1  UNL1        0.0626
     77 H          10.2989    4.3311    0.0000 H       1  UNL1        0.2099
     78 H          11.3522    2.0974    0.0000 H       1  UNL1        0.0258
     79 H          12.0867    1.6185    0.0000 H       1  UNL1        0.0258
     80 H          12.5656    2.3531    0.0000 H       1  UNL1        0.0258
     81 H          12.1531    4.3101    0.0000 H       1  UNL1        0.0258
     82 H          11.4186    4.7889    0.0000 H       1  UNL1        0.0258
     83 H          10.9398    4.0544    0.0000 H       1  UNL1        0.0258
     84 H          12.9238    3.9993    0.0000 H       1  UNL1        0.2102
@<TRIPOS>BOND
     1    15     1    1
     2     1    61    1
     3     2    18    2
     4    22     3    1
     5     3    66    1
     6    28     4    1
     7     4    75    1
     8     5    30    2
     9     6    31    2
    10     7    35    1
    11     7    77    1
    12     8    36    1
    13     8    84    1
    14     9    10    1
    15     9    11    1
    16     9    14    1
    17     9    20    1
    18    10    13    1
    19    10    16    1
    20    10    21    1
    21    11    12    1
    22    11    19    1
    23    11    39    1
    24    12    17    1
    25    12    18    1
    26    12    24    1
    27    13    15    1
    28    13    22    1
    29    13    40    1
    30    14    15    1
    31    14    41    1
    32    14    42    1
    33    15    43    1
    34    16    18    1
    35    16    44    1
    36    16    45    1
    37    17    23    1
    38    17    25    1
    39    17    46    1
    40    19    26    1
    41    19    47    1
    42    19    48    1
    43    20    49    1
    44    20    50    1
    45    20    51    1
    46    21    52    1
    47    21    53    1
    48    21    54    1
    49    22    29    1
    50    22    30    1
    51    23    26    2
    52    23    27    1
    53    24    55    1
    54    24    56    1
    55    24    57    1
    56    25    28    1
    57    25    58    1
    58    25    59    1
    59    26    60    1
    60    27    31    1
    61    27    32    1
    62    27    33    1
    63    28    31    1
    64    28    62    1
    65    29    63    1
    66    29    64    1
    67    29    65    1
    68    30    34    1
    69    32    70    1
    70    32    71    1
    71    32    72    1
    72    33    67    1
    73    33    68    1
    74    33    69    1
    75    34    35    1
    76    34    73    1
    77    34    74    1
    78    35    36    1
    79    35    76    1
    80    36    37    1
    81    36    38    1
    82    37    81    1
    83    37    82    1
    84    37    83    1
    85    38    78    1
    86    38    79    1
    87    38    80    1
