@<TRIPOS>MOLECULE
IMPHY004576
 55 62 0 0 0
SMALL
GASTEIGER

@<TRIPOS>ATOM
      1 O           9.5494   -1.3020    0.0000 O.2     1  UNL1       -0.2864
      2 O           3.4890    2.1969    0.0000 O.2     1  UNL1       -0.2864
      3 O           8.7654   -2.8388    0.0000 O.3     1  UNL1       -0.5060
      4 O           8.6657    3.1814    0.0000 O.3     1  UNL1       -0.5060
      5 O           7.8136    3.6733    0.0000 O.3     1  UNL1       -0.5060
      6 O           2.5501    0.7496    0.0000 O.3     1  UNL1       -0.5060
      7 O          10.4039    0.1582    0.0000 O.3     1  UNL1       -0.5059
      8 O           4.3263    3.6671    0.0000 O.3     1  UNL1       -0.5059
      9 O           5.2566   -3.9679    0.0000 O.3     1  UNL1       -0.3904
     10 C           6.9348    0.1672    0.0000 C.ar    1  UNL1        0.0005
     11 C           6.0688    0.6672    0.0000 C.ar    1  UNL1        0.0005
     12 C           6.9508   -0.8743    0.0000 C.ar    1  UNL1        0.0057
     13 C           5.1588    0.1604    0.0000 C.ar    1  UNL1        0.0056
     14 C           7.8008    0.6672    0.0000 C.ar    1  UNL1        0.0090
     15 C           6.0688    1.6672    0.0000 C.ar    1  UNL1        0.0090
     16 C           6.0528   -1.4020    0.0000 C.ar    1  UNL1       -0.0030
     17 C           5.1507   -0.8812    0.0000 C.ar    1  UNL1       -0.0054
     18 C           7.8008    1.6672    0.0000 C.ar    1  UNL1        0.0363
     19 C           6.9348    2.1672    0.0000 C.ar    1  UNL1        0.0363
     20 C           7.8280   -1.3370    0.0000 C.ar    1  UNL1        0.0721
     21 C           4.3194    0.6886    0.0000 C.ar    1  UNL1        0.0721
     22 C           8.6603    0.1725    0.0000 C.ar    1  UNL1        0.0723
     23 C           5.2105    2.1642    0.0000 C.ar    1  UNL1        0.0723
     24 C           6.0789   -2.4435    0.0000 C.ar    1  UNL1       -0.0104
     25 C           4.2357   -1.3794    0.0000 C.ar    1  UNL1       -0.0387
     26 C           8.6737   -0.8192    0.0000 C.2     1  UNL1        0.2013
     27 C           4.3450    1.6800    0.0000 C.2     1  UNL1        0.2013
     28 C           7.8781   -2.3776    0.0000 C.ar    1  UNL1        0.1286
     29 C           8.6716    2.1814    0.0000 C.ar    1  UNL1        0.1288
     30 C           6.9447    3.1784    0.0000 C.ar    1  UNL1        0.1288
     31 C           3.3932    0.2118    0.0000 C.ar    1  UNL1        0.1285
     32 C           9.5427    0.6664    0.0000 C.ar    1  UNL1        0.1317
     33 C           5.1970    3.1753    0.0000 C.ar    1  UNL1        0.1317
     34 C           6.9977   -2.9346    0.0000 C.ar    1  UNL1       -0.0135
     35 C           3.3510   -0.8292    0.0000 C.ar    1  UNL1       -0.0159
     36 C           9.5484    1.6776    0.0000 C.ar    1  UNL1        0.0227
     37 C           6.0700    3.6859    0.0000 C.ar    1  UNL1        0.0227
     38 C           5.2277   -2.9683    0.0000 C.3     1  UNL1        0.0699
     39 C           4.2068   -2.3790    0.0000 C.3     1  UNL1       -0.0390
     40 H           7.0204   -3.5542    0.0000 H       1  UNL1        0.0658
     41 H           2.8031   -1.1194    0.0000 H       1  UNL1        0.0657
     42 H          10.0859    1.9866    0.0000 H       1  UNL1        0.0691
     43 H           6.0688    4.3059    0.0000 H       1  UNL1        0.0691
     44 H           4.9989   -2.3921    0.0000 H       1  UNL1        0.0607
     45 H           4.6204   -3.0936    0.0000 H       1  UNL1        0.0607
     46 H           3.5871   -2.3610    0.0000 H       1  UNL1        0.0278
     47 H           4.1889   -2.9987    0.0000 H       1  UNL1        0.0278
     48 H           4.8266   -2.3969    0.0000 H       1  UNL1        0.0278
     49 H           8.7929   -3.4582    0.0000 H       1  UNL1        0.2922
     50 H           9.2008    3.4946    0.0000 H       1  UNL1        0.2922
     51 H           7.8173    4.2933    0.0000 H       1  UNL1        0.2922
     52 H           2.0000    0.4637    0.0000 H       1  UNL1        0.2922
     53 H          10.9438    0.4630    0.0000 H       1  UNL1        0.2922
     54 H           4.3204    4.2871    0.0000 H       1  UNL1        0.2922
     55 H           4.7288   -4.2933    0.0000 H       1  UNL1        0.2098
@<TRIPOS>BOND
     1     1    26    2
     2     2    27    2
     3     3    28    1
     4     3    49    1
     5     4    29    1
     6     4    50    1
     7     5    30    1
     8     5    51    1
     9     6    31    1
    10     6    52    1
    11     7    32    1
    12     7    53    1
    13     8    33    1
    14     8    54    1
    15     9    38    1
    16     9    55    1
    17    10    11   ar
    18    10    12   ar
    19    10    14   ar
    20    11    13   ar
    21    11    15   ar
    22    12    16   ar
    23    12    20   ar
    24    13    17   ar
    25    13    21   ar
    26    14    18   ar
    27    14    22   ar
    28    15    19   ar
    29    15    23   ar
    30    16    17   ar
    31    16    24   ar
    32    17    25   ar
    33    18    19   ar
    34    18    29   ar
    35    19    30   ar
    36    20    26    1
    37    20    28   ar
    38    21    27    1
    39    21    31   ar
    40    22    26    1
    41    22    32   ar
    42    23    27    1
    43    23    33   ar
    44    24    34   ar
    45    24    38    1
    46    25    35   ar
    47    25    39    1
    48    28    34   ar
    49    29    36   ar
    50    30    37   ar
    51    31    35   ar
    52    32    36   ar
    53    33    37   ar
    54    34    40    1
    55    35    41    1
    56    36    42    1
    57    37    43    1
    58    38    44    1
    59    38    45    1
    60    39    46    1
    61    39    47    1
    62    39    48    1
