@<TRIPOS>MOLECULE
IMPHY007795
 51 53 0 0 0
SMALL
GASTEIGER

@<TRIPOS>ATOM
      1 O           2.3038   -2.4613    0.0000 O.3     1  UNL1       -0.3945
      2 C           4.6876   -1.0433    0.0000 C.3     1  UNL1       -0.0239
      3 C           4.6876   -0.0433    0.0000 C.3     1  UNL1       -0.0034
      4 C           3.7937   -1.5780    0.0000 C.3     1  UNL1       -0.0053
      5 C           3.7937    0.4913    0.0000 C.3     1  UNL1       -0.0433
      6 C           2.8876   -1.0641    0.0000 C.3     1  UNL1       -0.0452
      7 C           5.5536   -1.5433    0.0000 C.3     1  UNL1       -0.0448
      8 C           2.8876   -0.0225    0.0000 C.3     1  UNL1       -0.0517
      9 C           5.5536    0.4567    0.0000 C.ar    1  UNL1       -0.0380
     10 C           6.4196   -1.0433    0.0000 C.3     1  UNL1       -0.0271
     11 C           4.6876    0.9567    0.0000 C.3     1  UNL1       -0.0553
     12 C           3.3037   -2.4497    0.0000 C.3     1  UNL1        0.0499
     13 C           4.3036   -2.4382    0.0000 C.3     1  UNL1       -0.0572
     14 C           6.4196   -0.0433    0.0000 C.ar    1  UNL1       -0.0434
     15 C           5.5376    1.4982    0.0000 C.ar    1  UNL1       -0.0575
     16 C           7.3296    0.4635    0.0000 C.ar    1  UNL1       -0.0549
     17 C           7.3377    1.5051    0.0000 C.ar    1  UNL1       -0.0445
     18 C           6.4356    2.0259    0.0000 C.ar    1  UNL1       -0.0580
     19 C           8.2056    2.0018    0.0000 C.3     1  UNL1       -0.0215
     20 C           8.2095    3.0018    0.0000 C.3     1  UNL1       -0.0586
     21 C           9.0697    1.4984    0.0000 C.3     1  UNL1       -0.0586
     22 H           4.6941   -1.8933    0.0000 H       1  UNL1        0.0315
     23 H           4.1982    0.9611    0.0000 H       1  UNL1        0.0274
     24 H           3.4000    0.9704    0.0000 H       1  UNL1        0.0274
     25 H           2.2767   -0.9580    0.0000 H       1  UNL1        0.0271
     26 H           2.6785   -1.6478    0.0000 H       1  UNL1        0.0271
     27 H           5.1551   -2.0183    0.0000 H       1  UNL1        0.0271
     28 H           5.9521   -2.0183    0.0000 H       1  UNL1        0.0271
     29 H           2.6785    0.5612    0.0000 H       1  UNL1        0.0266
     30 H           2.2767   -0.1286    0.0000 H       1  UNL1        0.0266
     31 H           6.6317   -1.6259    0.0000 H       1  UNL1        0.0313
     32 H           7.0302   -0.9357    0.0000 H       1  UNL1        0.0313
     33 H           5.3076    0.9567    0.0000 H       1  UNL1        0.0238
     34 H           4.6876    1.5767    0.0000 H       1  UNL1        0.0238
     35 H           4.0676    0.9567    0.0000 H       1  UNL1        0.0238
     36 H           3.2031   -3.0615    0.0000 H       1  UNL1        0.0562
     37 H           3.8887   -2.6550    0.0000 H       1  UNL1        0.0562
     38 H           3.7703   -2.7544    0.0000 H       1  UNL1        0.0236
     39 H           4.6198   -2.9715    0.0000 H       1  UNL1        0.0236
     40 H           4.8370   -2.1220    0.0000 H       1  UNL1        0.0236
     41 H           4.9971    1.8020    0.0000 H       1  UNL1        0.0621
     42 H           7.8630    0.1473    0.0000 H       1  UNL1        0.0623
     43 H           6.4332    2.6459    0.0000 H       1  UNL1        0.0620
     44 H           2.0000   -3.0018    0.0000 H       1  UNL1        0.2094
     45 H           8.7438    2.3097    0.0000 H       1  UNL1        0.0343
     46 H           8.8295    2.9994    0.0000 H       1  UNL1        0.0235
     47 H           8.2119    3.6218    0.0000 H       1  UNL1        0.0235
     48 H           7.5895    3.0042    0.0000 H       1  UNL1        0.0235
     49 H           8.7576    0.9627    0.0000 H       1  UNL1        0.0235
     50 H           9.6054    1.1864    0.0000 H       1  UNL1        0.0235
     51 H           9.3818    2.0342    0.0000 H       1  UNL1        0.0235
@<TRIPOS>BOND
     1     1    12    1
     2     1    44    1
     3     2     3    1
     4     2     4    1
     5     2     7    1
     6     2    22    1
     7     3     5    1
     8     3     9    1
     9     3    11    1
    10     4     6    1
    11     4    12    1
    12     4    13    1
    13     5     8    1
    14     5    23    1
    15     5    24    1
    16     6     8    1
    17     6    25    1
    18     6    26    1
    19     7    10    1
    20     7    27    1
    21     7    28    1
    22     8    29    1
    23     8    30    1
    24     9    14   ar
    25     9    15   ar
    26    10    14    1
    27    10    31    1
    28    10    32    1
    29    11    33    1
    30    11    34    1
    31    11    35    1
    32    12    36    1
    33    12    37    1
    34    13    38    1
    35    13    39    1
    36    13    40    1
    37    14    16   ar
    38    15    18   ar
    39    15    41    1
    40    16    17   ar
    41    16    42    1
    42    17    18   ar
    43    17    19    1
    44    18    43    1
    45    19    20    1
    46    19    21    1
    47    19    45    1
    48    20    46    1
    49    20    47    1
    50    20    48    1
    51    21    49    1
    52    21    50    1
    53    21    51    1
