@<TRIPOS>MOLECULE
IMPHY002361
 14 15 0 0 0
SMALL
GASTEIGER

@<TRIPOS>ATOM
      1 C           0.0064    2.6014    0.0000 C.3     1  UNL1        0.1211
      2 C           1.8498    1.6014    0.0000 C.ar    1  UNL1        0.1752
      3 C           1.8498    0.0000    0.0000 C.ar    1  UNL1        0.1776
      4 C           0.0000    1.6014    0.0000 C.3     1  UNL1        0.0699
      5 C           0.9250    1.6014    0.0000 C.ar    1  UNL1        0.0197
      6 C           0.9250    0.0000    0.0000 C.ar    1  UNL1        0.0470
      7 C          -0.9935    2.6142    0.0000 C.2     1  UNL1        0.3653
      8 C          -0.4627    0.7885    0.0000 C.3     1  UNL1        0.1910
      9 C           0.0000    0.0000    0.0000 C.3     1  UNL1        0.2075
     10 O          -1.5046    1.7547    0.0000 O.co2   1  UNL1       -0.2456
     11 O          -1.4823    3.4866    0.0000 O.co2   1  UNL1       -0.2456
     12 O          -1.3416    1.2655    0.0000 O.3     1  UNL1       -0.2197
     13 O          -0.8694   -0.4941    0.0000 O.3     1  UNL1       -0.2154
     14 O           2.3124    0.8129    0.0000 O.2     1  UNL1       -0.4479
@<TRIPOS>BOND
     1     1     4    1
     2     1     7    1
     3     2     5   ar
     4     2    14   ar
     5     3     6   ar
     6     3    14   ar
     7     4     5    1
     8     4     8    1
     9     5     6   ar
    10     6     9    1
    11     7    10   ar
    12     7    11   ar
    13     8     9    1
    14     8    12    1
    15     9    13    1
