@<TRIPOS>MOLECULE
IMPHY004957
 44 46 0 0 0
SMALL
GASTEIGER

@<TRIPOS>ATOM
      1 O           6.0682    0.5746    0.0000 O.2     1  UNL1       -0.4544
      2 O          10.3984   -0.9254    0.0000 O.3     1  UNL1       -0.5031
      3 O          10.3984    1.0746    0.0000 O.3     1  UNL1       -0.5033
      4 O           4.3198    3.6092    0.0000 O.3     1  UNL1       -0.5058
      5 O           6.0682    3.5746    0.0000 O.2     1  UNL1       -0.2869
      6 O           2.5381    0.5505    0.0000 O.3     1  UNL1       -0.5065
      7 C           8.6663   -0.9254    0.0000 C.ar    1  UNL1        0.0021
      8 C           7.8003    0.5746    0.0000 C.ar    1  UNL1        0.0213
      9 C           6.9343    1.0746    0.0000 C.ar    1  UNL1        0.1394
     10 C           8.6663   -1.9254    0.0000 C.3     1  UNL1       -0.0057
     11 C           7.8003   -0.4254    0.0000 C.ar    1  UNL1       -0.0439
     12 C           9.5323   -0.4254    0.0000 C.ar    1  UNL1        0.1618
     13 C           5.2022    2.0746    0.0000 C.ar    1  UNL1        0.1055
     14 C           5.2022    1.0746    0.0000 C.ar    1  UNL1        0.1462
     15 C           8.6663    1.0746    0.0000 C.ar    1  UNL1       -0.0059
     16 C           9.5323    0.5746    0.0000 C.ar    1  UNL1        0.1592
     17 C           6.9343    2.0746    0.0000 C.ar    1  UNL1        0.0288
     18 C           6.0682    2.5746    0.0000 C.ar    1  UNL1        0.1966
     19 C           7.8003   -2.4254    0.0000 C.2     1  UNL1       -0.0809
     20 C           4.3083    2.6093    0.0000 C.ar    1  UNL1        0.1347
     21 C           4.3083    0.5399    0.0000 C.ar    1  UNL1        0.0231
     22 C           7.8003   -3.4254    0.0000 C.2     1  UNL1       -0.0793
     23 C           3.4022    1.0538    0.0000 C.ar    1  UNL1        0.1239
     24 C           3.4022    2.0954    0.0000 C.ar    1  UNL1        0.0223
     25 C           6.9343   -3.9254    0.0000 C.3     1  UNL1       -0.0440
     26 C           8.6663   -3.9254    0.0000 C.3     1  UNL1       -0.0440
     27 H           8.8784   -2.5080    0.0000 H       1  UNL1        0.0357
     28 H           9.2769   -1.8177    0.0000 H       1  UNL1        0.0357
     29 H           7.2634   -0.7354    0.0000 H       1  UNL1        0.0629
     30 H           8.6663    1.6946    0.0000 H       1  UNL1        0.0662
     31 H           7.4712    2.3846    0.0000 H       1  UNL1        0.0693
     32 H           7.2634   -2.1154    0.0000 H       1  UNL1        0.0575
     33 H           4.3154   -0.0800    0.0000 H       1  UNL1        0.0691
     34 H           2.8665    2.4075    0.0000 H       1  UNL1        0.0691
     35 H           6.6243   -3.3885    0.0000 H       1  UNL1        0.0274
     36 H           8.3563   -4.4623    0.0000 H       1  UNL1        0.0274
     37 H           9.2033   -4.2354    0.0000 H       1  UNL1        0.0274
     38 H           8.9763   -3.3885    0.0000 H       1  UNL1        0.0274
     39 H           6.3973   -4.2354    0.0000 H       1  UNL1        0.0274
     40 H           7.2443   -4.4623    0.0000 H       1  UNL1        0.0274
     41 H          10.9353   -0.6154    0.0000 H       1  UNL1        0.2923
     42 H          10.3984    1.6946    0.0000 H       1  UNL1        0.2923
     43 H           3.7865    3.9254    0.0000 H       1  UNL1        0.2922
     44 H           2.0000    0.8584    0.0000 H       1  UNL1        0.2921
@<TRIPOS>BOND
     1     1     9   ar
     2     1    14   ar
     3     2    12    1
     4     2    41    1
     5     3    16    1
     6     3    42    1
     7     4    20    1
     8     4    43    1
     9     5    18    2
    10     6    23    1
    11     6    44    1
    12     7    10    1
    13     7    11   ar
    14     7    12   ar
    15     8     9    1
    16     8    11   ar
    17     8    15   ar
    18     9    17   ar
    19    10    19    1
    20    10    27    1
    21    10    28    1
    22    11    29    1
    23    12    16   ar
    24    13    14   ar
    25    13    18   ar
    26    13    20   ar
    27    14    21   ar
    28    15    16   ar
    29    15    30    1
    30    17    18   ar
    31    17    31    1
    32    19    22    2
    33    19    32    1
    34    20    24   ar
    35    21    23   ar
    36    21    33    1
    37    22    25    1
    38    22    26    1
    39    23    24   ar
    40    24    34    1
    41    25    35    1
    42    25    39    1
    43    25    40    1
    44    26    36    1
    45    26    37    1
    46    26    38    1
