@<TRIPOS>MOLECULE
IMPHY014790
 85 84 0 0 0
SMALL
GASTEIGER

@<TRIPOS>ATOM
      1 O          18.4545   -0.7500    0.0000 O.2     1  UNL1       -0.2974
      2 O          26.2487    0.7500    0.0000 O.3     1  UNL1       -0.4806
      3 O          25.3827   -0.7500    0.0000 O.2     1  UNL1       -0.2510
      4 C          10.6603    0.7500    0.0000 C.3     1  UNL1       -0.0531
      5 C          11.5263    0.2500    0.0000 C.3     1  UNL1       -0.0531
      6 C           9.7942    0.2500    0.0000 C.3     1  UNL1       -0.0531
      7 C          12.3923    0.7500    0.0000 C.3     1  UNL1       -0.0531
      8 C           8.9282    0.7500    0.0000 C.3     1  UNL1       -0.0531
      9 C          13.2583    0.2500    0.0000 C.3     1  UNL1       -0.0531
     10 C           8.0622    0.2500    0.0000 C.3     1  UNL1       -0.0531
     11 C          14.1244    0.7500    0.0000 C.3     1  UNL1       -0.0531
     12 C           7.1962    0.7500    0.0000 C.3     1  UNL1       -0.0531
     13 C          14.9904    0.2500    0.0000 C.3     1  UNL1       -0.0530
     14 C           6.3301    0.2500    0.0000 C.3     1  UNL1       -0.0531
     15 C          15.8564    0.7500    0.0000 C.3     1  UNL1       -0.0527
     16 C           5.4641    0.7500    0.0000 C.3     1  UNL1       -0.0531
     17 C          16.7224    0.2500    0.0000 C.3     1  UNL1       -0.0464
     18 C           4.5981    0.2500    0.0000 C.3     1  UNL1       -0.0531
     19 C          17.5885    0.7500    0.0000 C.3     1  UNL1        0.0058
     20 C           3.7320    0.7500    0.0000 C.3     1  UNL1       -0.0533
     21 C          20.1865    0.2500    0.0000 C.3     1  UNL1       -0.0464
     22 C          19.3205    0.7500    0.0000 C.3     1  UNL1        0.0058
     23 C          21.0526    0.7500    0.0000 C.3     1  UNL1       -0.0527
     24 C          18.4545    0.2500    0.0000 C.2     1  UNL1        0.1334
     25 C          21.9186    0.2500    0.0000 C.3     1  UNL1       -0.0530
     26 C          22.7846    0.7500    0.0000 C.3     1  UNL1       -0.0526
     27 C           2.8660    0.2500    0.0000 C.3     1  UNL1       -0.0559
     28 C          23.6506    0.2500    0.0000 C.3     1  UNL1       -0.0430
     29 C           2.0000    0.7500    0.0000 C.3     1  UNL1       -0.0653
     30 C          24.5167    0.7500    0.0000 C.3     1  UNL1        0.0448
     31 C          25.3827    0.2500    0.0000 C.2     1  UNL1        0.3047
     32 H          11.0588    1.2250    0.0000 H       1  UNL1        0.0265
     33 H          10.2617    1.2250    0.0000 H       1  UNL1        0.0265
     34 H          11.1278   -0.2249    0.0000 H       1  UNL1        0.0265
     35 H          11.9248   -0.2249    0.0000 H       1  UNL1        0.0265
     36 H           9.3957   -0.2249    0.0000 H       1  UNL1        0.0265
     37 H          10.1928   -0.2249    0.0000 H       1  UNL1        0.0265
     38 H          12.7908    1.2250    0.0000 H       1  UNL1        0.0265
     39 H          11.9938    1.2250    0.0000 H       1  UNL1        0.0265
     40 H           9.3267    1.2250    0.0000 H       1  UNL1        0.0265
     41 H           8.5297    1.2250    0.0000 H       1  UNL1        0.0265
     42 H          12.8598   -0.2249    0.0000 H       1  UNL1        0.0265
     43 H          13.6569   -0.2249    0.0000 H       1  UNL1        0.0265
     44 H           7.6636   -0.2249    0.0000 H       1  UNL1        0.0265
     45 H           8.4607   -0.2249    0.0000 H       1  UNL1        0.0265
     46 H          14.5229    1.2250    0.0000 H       1  UNL1        0.0265
     47 H          13.7258    1.2250    0.0000 H       1  UNL1        0.0265
     48 H           7.5947    1.2250    0.0000 H       1  UNL1        0.0265
     49 H           6.7976    1.2250    0.0000 H       1  UNL1        0.0265
     50 H          14.5919   -0.2249    0.0000 H       1  UNL1        0.0265
     51 H          15.3889   -0.2249    0.0000 H       1  UNL1        0.0265
     52 H           5.9316   -0.2249    0.0000 H       1  UNL1        0.0265
     53 H           6.7287   -0.2249    0.0000 H       1  UNL1        0.0265
     54 H          16.2549    1.2250    0.0000 H       1  UNL1        0.0265
     55 H          15.4579    1.2250    0.0000 H       1  UNL1        0.0265
     56 H           5.8626    1.2250    0.0000 H       1  UNL1        0.0265
     57 H           5.0656    1.2250    0.0000 H       1  UNL1        0.0265
     58 H          16.3239   -0.2249    0.0000 H       1  UNL1        0.0269
     59 H          17.1210   -0.2249    0.0000 H       1  UNL1        0.0269
     60 H           4.1996   -0.2249    0.0000 H       1  UNL1        0.0265
     61 H           4.9966   -0.2249    0.0000 H       1  UNL1        0.0265
     62 H          17.9870    1.2250    0.0000 H       1  UNL1        0.0342
     63 H          17.1899    1.2250    0.0000 H       1  UNL1        0.0342
     64 H           4.1306    1.2250    0.0000 H       1  UNL1        0.0265
     65 H           3.3335    1.2250    0.0000 H       1  UNL1        0.0265
     66 H          19.7880   -0.2249    0.0000 H       1  UNL1        0.0269
     67 H          20.5851   -0.2249    0.0000 H       1  UNL1        0.0269
     68 H          21.4511    1.2250    0.0000 H       1  UNL1        0.0265
     69 H          20.6540    1.2250    0.0000 H       1  UNL1        0.0265
     70 H          19.7190    1.2250    0.0000 H       1  UNL1        0.0342
     71 H          18.9220    1.2250    0.0000 H       1  UNL1        0.0342
     72 H          21.5201   -0.2249    0.0000 H       1  UNL1        0.0265
     73 H          22.3171   -0.2249    0.0000 H       1  UNL1        0.0265
     74 H          23.1831    1.2250    0.0000 H       1  UNL1        0.0265
     75 H          22.3861    1.2250    0.0000 H       1  UNL1        0.0265
     76 H           2.4675   -0.2249    0.0000 H       1  UNL1        0.0263
     77 H           3.2646   -0.2249    0.0000 H       1  UNL1        0.0263
     78 H          23.2521   -0.2249    0.0000 H       1  UNL1        0.0270
     79 H          24.0492   -0.2249    0.0000 H       1  UNL1        0.0270
     80 H           2.3100    1.2869    0.0000 H       1  UNL1        0.0230
     81 H           1.4631    1.0600    0.0000 H       1  UNL1        0.0230
     82 H           1.6900    0.2131    0.0000 H       1  UNL1        0.0230
     83 H          24.9152    1.2250    0.0000 H       1  UNL1        0.0377
     84 H          24.1181    1.2250    0.0000 H       1  UNL1        0.0377
     85 H          26.7856    0.4400    0.0000 H       1  UNL1        0.2951
@<TRIPOS>BOND
     1     1    24    2
     2     2    31    1
     3     2    85    1
     4     3    31    2
     5     4     5    1
     6     4     6    1
     7     4    32    1
     8     4    33    1
     9     5     7    1
    10     5    34    1
    11     5    35    1
    12     6     8    1
    13     6    36    1
    14     6    37    1
    15     7     9    1
    16     7    38    1
    17     7    39    1
    18     8    10    1
    19     8    40    1
    20     8    41    1
    21     9    11    1
    22     9    42    1
    23     9    43    1
    24    10    12    1
    25    10    44    1
    26    10    45    1
    27    11    13    1
    28    11    46    1
    29    11    47    1
    30    12    14    1
    31    12    48    1
    32    12    49    1
    33    13    15    1
    34    13    50    1
    35    13    51    1
    36    14    16    1
    37    14    52    1
    38    14    53    1
    39    15    17    1
    40    15    54    1
    41    15    55    1
    42    16    18    1
    43    16    56    1
    44    16    57    1
    45    17    19    1
    46    17    58    1
    47    17    59    1
    48    18    20    1
    49    18    60    1
    50    18    61    1
    51    19    24    1
    52    19    62    1
    53    19    63    1
    54    20    27    1
    55    20    64    1
    56    20    65    1
    57    21    22    1
    58    21    23    1
    59    21    66    1
    60    21    67    1
    61    22    24    1
    62    22    70    1
    63    22    71    1
    64    23    25    1
    65    23    68    1
    66    23    69    1
    67    25    26    1
    68    25    72    1
    69    25    73    1
    70    26    28    1
    71    26    74    1
    72    26    75    1
    73    27    29    1
    74    27    76    1
    75    27    77    1
    76    28    30    1
    77    28    78    1
    78    28    79    1
    79    29    80    1
    80    29    81    1
    81    29    82    1
    82    30    31    1
    83    30    83    1
    84    30    84    1
