@<TRIPOS>MOLECULE
IMPHY010451
 25 27 0 0 0
SMALL
GASTEIGER

@<TRIPOS>ATOM
      1 O           6.7889   -1.8137    0.0000 O.3     1  UNL1       -0.3841
      2 O           4.6660    1.9416    0.0000 O.2     1  UNL1       -0.2669
      3 N           5.5321    0.4416    0.0000 N.ar    1  UNL1       -0.2940
      4 N           4.6660   -1.0584    0.0000 N.ar    1  UNL1       -0.2308
      5 C           7.0619   -0.0584    0.0000 C.3     1  UNL1       -0.0016
      6 C           6.4783   -0.8632    0.0000 C.3     1  UNL1        0.1145
      7 C           6.4783    0.7463    0.0000 C.3     1  UNL1        0.0306
      8 C           5.5321   -0.5584    0.0000 C.ar    1  UNL1        0.1418
      9 C           4.6660    0.9416    0.0000 C.ar    1  UNL1        0.2619
     10 C           3.8000    0.4416    0.0000 C.ar    1  UNL1        0.0649
     11 C           3.8000   -0.5584    0.0000 C.ar    1  UNL1        0.0783
     12 C           2.9061    0.9762    0.0000 C.ar    1  UNL1       -0.0474
     13 C           2.9061   -1.0931    0.0000 C.ar    1  UNL1       -0.0355
     14 C           2.0000    0.4624    0.0000 C.ar    1  UNL1       -0.0609
     15 C           2.0000   -0.5793    0.0000 C.ar    1  UNL1       -0.0597
     16 H           7.5228   -0.4732    0.0000 H       1  UNL1        0.0312
     17 H           7.5228    0.3563    0.0000 H       1  UNL1        0.0312
     18 H           7.0908   -0.9594    0.0000 H       1  UNL1        0.0675
     19 H           7.0157    1.0555    0.0000 H       1  UNL1        0.0494
     20 H           6.2272    1.3132    0.0000 H       1  UNL1        0.0494
     21 H           7.3956   -1.9416    0.0000 H       1  UNL1        0.2104
     22 H           2.9132    1.5962    0.0000 H       1  UNL1        0.0626
     23 H           2.9132   -1.7131    0.0000 H       1  UNL1        0.0639
     24 H           1.4643    0.7744    0.0000 H       1  UNL1        0.0618
     25 H           1.4643   -0.8913    0.0000 H       1  UNL1        0.0618
@<TRIPOS>BOND
     1     6     1    1
     2     1    21    1
     3     2     9    2
     4     3     7    1
     5     3     8   ar
     6     3     9   ar
     7     4     8   ar
     8     4    11   ar
     9     5     6    1
    10     5     7    1
    11     5    16    1
    12     5    17    1
    13     6     8    1
    14     6    18    1
    15     7    19    1
    16     7    20    1
    17     9    10   ar
    18    10    11   ar
    19    10    12   ar
    20    11    13   ar
    21    12    14   ar
    22    12    22    1
    23    13    15   ar
    24    13    23    1
    25    14    15   ar
    26    14    24    1
    27    15    25    1
