@<TRIPOS>MOLECULE
IMPHY006228
 82 86 0 0 0
SMALL
GASTEIGER

@<TRIPOS>ATOM
      1 O           8.0622   -2.0000    0.0000 O.3     1  UNL1       -0.3302
      2 O           9.7942   -2.0000    0.0000 O.3     1  UNL1       -0.4608
      3 O           8.0622   -5.0000    0.0000 O.3     1  UNL1       -0.3864
      4 O           6.3301   -4.0000    0.0000 O.3     1  UNL1       -0.3864
      5 O           9.7942   -4.0000    0.0000 O.3     1  UNL1       -0.3829
      6 O           6.3301   -1.0000    0.0000 O.3     1  UNL1       -0.4589
      7 O           4.5981   -1.0000    0.0000 O.2     1  UNL1       -0.2456
      8 O           2.8660    4.0000    0.0000 O.3     1  UNL1       -0.4913
      9 O           6.3301    4.0000    0.0000 O.3     1  UNL1       -0.4913
     10 O           4.5981    5.0000    0.0000 O.3     1  UNL1       -0.5009
     11 N          10.6603    3.5000    0.0000 N.3     1  UNL1       -0.2949
     12 C           9.7942    4.0000    0.0000 C.3     1  UNL1        0.0145
     13 C          10.0034    4.9718    0.0000 C.3     1  UNL1       -0.0359
     14 C          11.3973    4.1671    0.0000 C.3     1  UNL1       -0.0004
     15 C          10.9922    5.0749    0.0000 C.3     1  UNL1       -0.0388
     16 C           8.9282    3.5000    0.0000 C.3     1  UNL1       -0.0157
     17 C          10.6603    2.5000    0.0000 C.3     1  UNL1        0.0248
     18 C           8.9282    2.5000    0.0000 C.2     1  UNL1       -0.0662
     19 C           9.7942    2.0000    0.0000 C.2     1  UNL1       -0.0272
     20 C           9.7942    1.0000    0.0000 C.ar    1  UNL1       -0.0204
     21 C           8.0622    2.0000    0.0000 C.3     1  UNL1       -0.0431
     22 C           8.0622   -4.0000    0.0000 C.3     1  UNL1        0.1152
     23 C           7.1962   -3.5000    0.0000 C.3     1  UNL1        0.1130
     24 C           8.9282   -3.5000    0.0000 C.3     1  UNL1        0.1454
     25 C           7.1962   -2.5000    0.0000 C.3     1  UNL1        0.1250
     26 C           8.9282   -2.5000    0.0000 C.3     1  UNL1        0.2308
     27 C           8.9282    0.5000    0.0000 C.ar    1  UNL1       -0.0508
     28 C          10.6603    0.5000    0.0000 C.ar    1  UNL1       -0.0508
     29 C           9.7942   -1.0000    0.0000 C.ar    1  UNL1        0.1240
     30 C           6.3301   -2.0000    0.0000 C.3     1  UNL1        0.1215
     31 C           8.9282   -0.5000    0.0000 C.ar    1  UNL1       -0.0193
     32 C          10.6603   -0.5000    0.0000 C.ar    1  UNL1       -0.0193
     33 C           5.4641   -0.5000    0.0000 C.2     1  UNL1        0.3320
     34 C           5.4641    0.5000    0.0000 C.2     1  UNL1        0.0231
     35 C           4.5981    1.0000    0.0000 C.2     1  UNL1       -0.0476
     36 C           4.5981    2.0000    0.0000 C.ar    1  UNL1       -0.0177
     37 C           5.4641    2.5000    0.0000 C.ar    1  UNL1       -0.0089
     38 C           3.7320    2.5000    0.0000 C.ar    1  UNL1       -0.0089
     39 C           3.7320    3.5000    0.0000 C.ar    1  UNL1        0.1655
     40 C           5.4641    3.5000    0.0000 C.ar    1  UNL1        0.1655
     41 C           4.5981    4.0000    0.0000 C.ar    1  UNL1        0.2010
     42 C           2.0000    3.5000    0.0000 C.3     1  UNL1        0.0790
     43 C           6.3301    5.0000    0.0000 C.3     1  UNL1        0.0790
     44 H           9.1072    4.5005    0.0000 H       1  UNL1        0.0466
     45 H          10.0043    5.5918    0.0000 H       1  UNL1        0.0281
     46 H           9.3870    5.0379    0.0000 H       1  UNL1        0.0281
     47 H          11.7627    3.6662    0.0000 H       1  UNL1        0.0427
     48 H          11.9338    4.4779    0.0000 H       1  UNL1        0.0427
     49 H          11.5818    5.2666    0.0000 H       1  UNL1        0.0278
     50 H          10.8634    5.6814    0.0000 H       1  UNL1        0.0278
     51 H           8.7162    4.0826    0.0000 H       1  UNL1        0.0325
     52 H           8.3176    3.3923    0.0000 H       1  UNL1        0.0325
     53 H          10.8723    1.9174    0.0000 H       1  UNL1        0.0476
     54 H          11.2708    2.6077    0.0000 H       1  UNL1        0.0476
     55 H           7.7522    2.5369    0.0000 H       1  UNL1        0.0275
     56 H           7.5252    1.6900    0.0000 H       1  UNL1        0.0275
     57 H           8.3722    1.4631    0.0000 H       1  UNL1        0.0275
     58 H           7.3261   -4.4250    0.0000 H       1  UNL1        0.0648
     59 H           6.4600   -3.0750    0.0000 H       1  UNL1        0.0647
     60 H           9.6643   -3.0750    0.0000 H       1  UNL1        0.0683
     61 H           7.1962   -1.6500    0.0000 H       1  UNL1        0.0658
     62 H           8.9282   -1.6500    0.0000 H       1  UNL1        0.1084
     63 H           8.3913    0.8100    0.0000 H       1  UNL1        0.0625
     64 H          11.1972    0.8100    0.0000 H       1  UNL1        0.0625
     65 H           5.7196   -1.8923    0.0000 H       1  UNL1        0.0725
     66 H           6.1181   -2.5826    0.0000 H       1  UNL1        0.0725
     67 H           8.3913   -0.8100    0.0000 H       1  UNL1        0.0654
     68 H          11.1972   -0.8100    0.0000 H       1  UNL1        0.0654
     69 H           7.5252   -5.3100    0.0000 H       1  UNL1        0.2100
     70 H           5.7932   -3.6900    0.0000 H       1  UNL1        0.2100
     71 H          10.3312   -3.6900    0.0000 H       1  UNL1        0.2102
     72 H           6.0010    0.8100    0.0000 H       1  UNL1        0.0689
     73 H           4.0611    0.6900    0.0000 H       1  UNL1        0.0626
     74 H           6.0010    2.1900    0.0000 H       1  UNL1        0.0661
     75 H           3.1951    2.1900    0.0000 H       1  UNL1        0.0661
     76 H           4.0611    5.3100    0.0000 H       1  UNL1        0.2924
     77 H           1.6900    4.0369    0.0000 H       1  UNL1        0.0660
     78 H           1.4631    3.1900    0.0000 H       1  UNL1        0.0660
     79 H           2.3100    2.9631    0.0000 H       1  UNL1        0.0660
     80 H           6.9501    5.0000    0.0000 H       1  UNL1        0.0660
     81 H           6.3301    5.6200    0.0000 H       1  UNL1        0.0660
     82 H           5.7101    5.0000    0.0000 H       1  UNL1        0.0660
@<TRIPOS>BOND
     1     1    25    1
     2     1    26    1
     3     2    26    1
     4     2    29    1
     5     3    22    1
     6     3    69    1
     7     4    23    1
     8     4    70    1
     9     5    24    1
    10     5    71    1
    11     6    30    1
    12     6    33    1
    13     7    33    2
    14     8    39    1
    15     8    42    1
    16     9    40    1
    17     9    43    1
    18    10    41    1
    19    10    76    1
    20    11    12    1
    21    11    14    1
    22    11    17    1
    23    12    13    1
    24    12    16    1
    25    12    44    1
    26    13    15    1
    27    13    45    1
    28    13    46    1
    29    14    15    1
    30    14    47    1
    31    14    48    1
    32    15    49    1
    33    15    50    1
    34    16    18    1
    35    16    51    1
    36    16    52    1
    37    17    19    1
    38    17    53    1
    39    17    54    1
    40    18    19    2
    41    18    21    1
    42    19    20    1
    43    20    27   ar
    44    20    28   ar
    45    21    55    1
    46    21    56    1
    47    21    57    1
    48    22    23    1
    49    22    24    1
    50    22    58    1
    51    23    25    1
    52    23    59    1
    53    24    26    1
    54    24    60    1
    55    25    30    1
    56    25    61    1
    57    26    62    1
    58    27    31   ar
    59    27    63    1
    60    28    32   ar
    61    28    64    1
    62    29    31   ar
    63    29    32   ar
    64    30    65    1
    65    30    66    1
    66    31    67    1
    67    32    68    1
    68    33    34    1
    69    34    35    2
    70    34    72    1
    71    35    36    1
    72    35    73    1
    73    36    37   ar
    74    36    38   ar
    75    37    40   ar
    76    37    74    1
    77    38    39   ar
    78    38    75    1
    79    39    41   ar
    80    40    41   ar
    81    42    77    1
    82    42    78    1
    83    42    79    1
    84    43    80    1
    85    43    81    1
    86    43    82    1
