@<TRIPOS>MOLECULE
IMPHY011407
 27 27 0 0 0
SMALL
GASTEIGER

@<TRIPOS>ATOM
      1 O           2.0000   -0.2662    0.0000 O.2     1  UNL1       -0.3010
      2 C           5.4543    0.3727    0.0000 C.3     1  UNL1       -0.0107
      3 C           4.6453   -0.2151    0.0000 C.3     1  UNL1       -0.0224
      4 C           4.9543   -1.1662    0.0000 C.3     1  UNL1       -0.0305
      5 C           6.2633   -0.2151    0.0000 C.2     1  UNL1       -0.0706
      6 C           5.9543   -1.1662    0.0000 C.2     1  UNL1       -0.0842
      7 C           3.6942    0.0939    0.0000 C.3     1  UNL1        0.0067
      8 C           6.0421    1.1817    0.0000 C.3     1  UNL1       -0.0558
      9 C           4.8665    1.1817    0.0000 C.3     1  UNL1       -0.0558
     10 C           7.2144    0.0939    0.0000 C.3     1  UNL1       -0.0433
     11 C           2.9511   -0.5752    0.0000 C.2     1  UNL1        0.1206
     12 H           4.5483    0.3972    0.0000 H       1  UNL1        0.0316
     13 H           4.3478   -1.2951    0.0000 H       1  UNL1        0.0310
     14 H           5.0191   -1.7828    0.0000 H       1  UNL1        0.0310
     15 H           6.3187   -1.6678    0.0000 H       1  UNL1        0.0572
     16 H           3.9853    0.6413    0.0000 H       1  UNL1        0.0342
     17 H           3.2056    0.4756    0.0000 H       1  UNL1        0.0342
     18 H           6.5437    0.8173    0.0000 H       1  UNL1        0.0238
     19 H           6.4065    1.6833    0.0000 H       1  UNL1        0.0238
     20 H           5.5405    1.5461    0.0000 H       1  UNL1        0.0238
     21 H           5.3681    1.5461    0.0000 H       1  UNL1        0.0238
     22 H           4.5021    1.6833    0.0000 H       1  UNL1        0.0238
     23 H           4.3649    0.8173    0.0000 H       1  UNL1        0.0238
     24 H           7.4059   -0.4958    0.0000 H       1  UNL1        0.0275
     25 H           7.8040    0.2855    0.0000 H       1  UNL1        0.0275
     26 H           7.0228    0.6836    0.0000 H       1  UNL1        0.0275
     27 H           3.0800   -1.1817    0.0000 H       1  UNL1        0.1026
@<TRIPOS>BOND
     1     1    11    2
     2     2     3    1
     3     2     5    1
     4     2     8    1
     5     2     9    1
     6     3     4    1
     7     3     7    1
     8     3    12    1
     9     4     6    1
    10     4    13    1
    11     4    14    1
    12     5     6    2
    13     5    10    1
    14     6    15    1
    15     7    11    1
    16     7    16    1
    17     7    17    1
    18     8    18    1
    19     8    19    1
    20     8    20    1
    21     9    21    1
    22     9    22    1
    23     9    23    1
    24    10    24    1
    25    10    25    1
    26    10    26    1
    27    11    27    1
