@<TRIPOS>MOLECULE
IMPHY006747
 89 93 0 0 0
SMALL
GASTEIGER

@<TRIPOS>ATOM
      1 O           3.4633   -0.1764    0.0000 O.3     1  UNL1       -0.3760
      2 O           6.6180    1.5694    0.0000 O.3     1  UNL1       -0.4569
      3 O           7.0824    0.1368    0.0000 O.3     1  UNL1       -0.4592
      4 O           5.5970   -3.9878    0.0000 O.3     1  UNL1       -0.4545
      5 O           3.6419   -1.7652    0.0000 O.3     1  UNL1       -0.4604
      6 O           2.4213    0.5713    0.0000 O.2     1  UNL1       -0.2939
      7 O           8.1788   -3.3852    0.0000 O.3     1  UNL1       -0.4606
      8 O           5.3046    4.5472    0.0000 O.2     1  UNL1       -0.4708
      9 O           3.9985   -4.5472    0.0000 O.2     1  UNL1       -0.2507
     10 O           9.0429   -1.8402    0.0000 O.2     1  UNL1       -0.2508
     11 O           7.7961    0.2997    0.0000 O.2     1  UNL1       -0.2508
     12 O           8.7375   -0.3738    0.0000 O.2     1  UNL1       -0.2546
     13 O           2.0000   -2.3169    0.0000 O.2     1  UNL1       -0.2512
     14 C           4.9294    1.1839    0.0000 C.3     1  UNL1        0.0552
     15 C           5.3744   -0.7659    0.0000 C.3     1  UNL1        0.0327
     16 C           5.5970   -1.7409    0.0000 C.3     1  UNL1        0.0226
     17 C           4.1963    0.5038    0.0000 C.3     1  UNL1        0.1540
     18 C           5.8850    0.8892    0.0000 C.3     1  UNL1        0.1495
     19 C           6.1075   -0.0858    0.0000 C.3     1  UNL1        0.1472
     20 C           4.5092    2.0848    0.0000 C.3     1  UNL1        0.0061
     21 C           4.4189   -0.4712    0.0000 C.2     1  UNL1       -0.0303
     22 C           6.3788   -2.3644    0.0000 C.3     1  UNL1        0.0214
     23 C           3.5223    1.9653    0.0000 C.3     1  UNL1        0.0167
     24 C           4.6220   -1.9634    0.0000 C.3     1  UNL1        0.1195
     25 C           3.3294    0.9901    0.0000 C.2     1  UNL1        0.1700
     26 C           5.6624    1.8641    0.0000 C.3     1  UNL1       -0.0521
     27 C           6.3788   -3.3644    0.0000 C.3     1  UNL1        0.1483
     28 C           6.2204   -0.9590    0.0000 C.3     1  UNL1       -0.0551
     29 C           7.2727   -1.8297    0.0000 C.3     1  UNL1        0.0521
     30 C           4.9947    2.9591    0.0000 C.ar    1  UNL1       -0.0055
     31 C           4.1882   -2.8644    0.0000 C.3     1  UNL1        0.0825
     32 C           3.6858   -1.1514    0.0000 C.2     1  UNL1       -0.0959
     33 C           7.2727   -3.8990    0.0000 C.3     1  UNL1        0.1321
     34 C           6.3788   -4.3644    0.0000 C.3     1  UNL1       -0.0213
     35 C           4.6220   -3.7653    0.0000 C.2     1  UNL1        0.3113
     36 C           8.1788   -2.3435    0.0000 C.2     1  UNL1        0.3076
     37 C           5.9873    3.0802    0.0000 C.ar    1  UNL1       -0.0205
     38 C           4.5727    3.8657    0.0000 C.ar    1  UNL1        0.0951
     39 C           7.5736    1.2746    0.0000 C.2     1  UNL1        0.3077
     40 C           7.7626   -0.5963    0.0000 C.2     1  UNL1        0.2946
     41 C           6.1789    4.0617    0.0000 C.ar    1  UNL1        0.0920
     42 C           2.9802   -2.5150    0.0000 C.2     1  UNL1        0.3042
     43 C           8.3066    1.9548    0.0000 C.3     1  UNL1        0.0473
     44 C           9.2622    1.6600    0.0000 C.3     1  UNL1       -0.0367
     45 C           3.2986   -3.4629    0.0000 C.3     1  UNL1        0.0332
     46 C           9.9953    2.3402    0.0000 C.3     1  UNL1       -0.0622
     47 C           9.4847    0.6851    0.0000 C.3     1  UNL1       -0.0622
     48 H           4.7513   -1.3441    0.0000 H       1  UNL1        0.0390
     49 H           6.4774    0.7064    0.0000 H       1  UNL1        0.0778
     50 H           6.3972   -0.6339    0.0000 H       1  UNL1        0.0778
     51 H           4.1631    2.5992    0.0000 H       1  UNL1        0.0361
     52 H           6.4358   -1.5163    0.0000 H       1  UNL1        0.0352
     53 H           3.5129    2.5852    0.0000 H       1  UNL1        0.0349
     54 H           2.9048    2.0210    0.0000 H       1  UNL1        0.0349
     55 H           4.6143   -1.3434    0.0000 H       1  UNL1        0.0745
     56 H           6.0842    1.4096    0.0000 H       1  UNL1        0.0238
     57 H           6.1169    2.2858    0.0000 H       1  UNL1        0.0238
     58 H           5.2407    2.3186    0.0000 H       1  UNL1        0.0238
     59 H           6.7052   -1.3456    0.0000 H       1  UNL1        0.0237
     60 H           6.6070   -0.4743    0.0000 H       1  UNL1        0.0237
     61 H           5.7357   -0.5725    0.0000 H       1  UNL1        0.0237
     62 H           7.6664   -1.3507    0.0000 H       1  UNL1        0.0382
     63 H           6.8681   -1.3599    0.0000 H       1  UNL1        0.0382
     64 H           3.7034   -2.4778    0.0000 H       1  UNL1        0.0414
     65 H           3.7034   -3.2509    0.0000 H       1  UNL1        0.0414
     66 H           2.8708    0.0063    0.0000 H       1  UNL1        0.2112
     67 H           3.0934   -0.9686    0.0000 H       1  UNL1        0.0536
     68 H           3.8238   -1.7558    0.0000 H       1  UNL1        0.0536
     69 H           6.8681   -4.3688    0.0000 H       1  UNL1        0.0738
     70 H           7.6664   -4.3780    0.0000 H       1  UNL1        0.0738
     71 H           5.7588   -4.3644    0.0000 H       1  UNL1        0.0269
     72 H           6.3788   -4.9844    0.0000 H       1  UNL1        0.0269
     73 H           6.9988   -4.3644    0.0000 H       1  UNL1        0.0269
     74 H           6.4098    2.6264    0.0000 H       1  UNL1        0.0652
     75 H           3.9642    3.9845    0.0000 H       1  UNL1        0.1032
     76 H           7.5798   -1.1887    0.0000 H       1  UNL1        0.1512
     77 H           6.7410    4.3233    0.0000 H       1  UNL1        0.1029
     78 H           8.5895    2.5065    0.0000 H       1  UNL1        0.0380
     79 H           7.8124    2.3291    0.0000 H       1  UNL1        0.0380
     80 H           9.8547    1.4773    0.0000 H       1  UNL1        0.0301
     81 H           2.7109   -3.6603    0.0000 H       1  UNL1        0.0342
     82 H           3.4960   -4.0506    0.0000 H       1  UNL1        0.0342
     83 H           3.8863   -3.2654    0.0000 H       1  UNL1        0.0342
     84 H           8.8803    0.5471    0.0000 H       1  UNL1        0.0232
     85 H           9.6227    0.0806    0.0000 H       1  UNL1        0.0232
     86 H          10.0892    0.8230    0.0000 H       1  UNL1        0.0232
     87 H          10.4170    1.8857    0.0000 H       1  UNL1        0.0232
     88 H          10.4498    2.7619    0.0000 H       1  UNL1        0.0232
     89 H           9.5736    2.7947    0.0000 H       1  UNL1        0.0232
@<TRIPOS>BOND
     1    17     1    1
     2     1    66    1
     3    18     2    1
     4     2    39    1
     5    19     3    1
     6     3    40    1
     7     4    27    1
     8     4    35    1
     9    24     5    1
    10     5    42    1
    11     6    25    2
    12     7    33    1
    13     7    36    1
    14     8    38   ar
    15     8    41   ar
    16     9    35    2
    17    10    36    2
    18    11    39    2
    19    12    40    2
    20    13    42    2
    21    14    17    1
    22    14    18    1
    23    14    20    1
    24    14    26    1
    25    15    16    1
    26    15    19    1
    27    15    21    1
    28    15    48    1
    29    16    22    1
    30    16    24    1
    31    16    28    1
    32    17    21    1
    33    17    25    1
    34    18    19    1
    35    18    49    1
    36    19    50    1
    37    20    23    1
    38    20    30    1
    39    20    51    1
    40    21    32    2
    41    22    27    1
    42    22    29    1
    43    22    52    1
    44    23    25    1
    45    23    53    1
    46    23    54    1
    47    24    31    1
    48    24    55    1
    49    26    56    1
    50    26    57    1
    51    26    58    1
    52    27    33    1
    53    27    34    1
    54    28    59    1
    55    28    60    1
    56    28    61    1
    57    29    36    1
    58    29    62    1
    59    29    63    1
    60    30    37   ar
    61    30    38   ar
    62    31    35    1
    63    31    64    1
    64    31    65    1
    65    32    67    1
    66    32    68    1
    67    33    69    1
    68    33    70    1
    69    34    71    1
    70    34    72    1
    71    34    73    1
    72    37    41   ar
    73    37    74    1
    74    38    75    1
    75    39    43    1
    76    40    76    1
    77    41    77    1
    78    42    45    1
    79    43    44    1
    80    43    78    1
    81    43    79    1
    82    44    46    1
    83    44    47    1
    84    44    80    1
    85    45    81    1
    86    45    82    1
    87    45    83    1
    88    46    87    1
    89    46    88    1
    90    46    89    1
    91    47    84    1
    92    47    85    1
    93    47    86    1
