@<TRIPOS>MOLECULE
IMPHY009908
 61 64 0 0 0
SMALL
GASTEIGER

@<TRIPOS>ATOM
      1 O           8.5991   -1.2857    0.0000 O.3     1  UNL1       -0.3302
      2 O          10.3312   -1.2857    0.0000 O.3     1  UNL1       -0.4515
      3 O           6.8671   -3.2857    0.0000 O.3     1  UNL1       -0.3864
      4 O           8.5991   -4.2857    0.0000 O.3     1  UNL1       -0.3864
      5 O          10.3312   -3.2857    0.0000 O.3     1  UNL1       -0.3829
      6 O           6.0010   -1.7857    0.0000 O.3     1  UNL1       -0.4616
      7 O          11.1972    1.2143    0.0000 O.2     1  UNL1       -0.1997
      8 O           5.1350   -0.2857    0.0000 O.2     1  UNL1       -0.2502
      9 O           7.6950    1.2112    0.0000 O.3     1  UNL1       -0.5057
     10 O           9.4530    4.2836    0.0000 O.3     1  UNL1       -0.5063
     11 O          12.9292   -2.7857    0.0000 O.3     1  UNL1       -0.5033
     12 O          14.6613   -1.7857    0.0000 O.3     1  UNL1       -0.5033
     13 O           2.5369   -1.7857    0.0000 O.3     1  UNL1       -0.4802
     14 O           3.4030   -0.2857    0.0000 O.2     1  UNL1       -0.2504
     15 C           7.7331   -2.7857    0.0000 C.3     1  UNL1        0.1130
     16 C           8.5991   -3.2857    0.0000 C.3     1  UNL1        0.1152
     17 C           7.7331   -1.7857    0.0000 C.3     1  UNL1        0.1250
     18 C           9.4651   -2.7857    0.0000 C.3     1  UNL1        0.1454
     19 C           9.4651   -1.7857    0.0000 C.3     1  UNL1        0.2313
     20 C           6.8671   -1.2857    0.0000 C.3     1  UNL1        0.1212
     21 C          10.3312   -0.2857    0.0000 C.ar    1  UNL1        0.2288
     22 C          11.1972    0.2143    0.0000 C.ar    1  UNL1        0.4046
     23 C           9.4651    0.2143    0.0000 C.ar    1  UNL1        0.0093
     24 C           9.4651    1.2143    0.0000 C.ar    1  UNL1        0.1241
     25 C           5.1350   -1.2857    0.0000 C.2     1  UNL1        0.3180
     26 C          10.3312    1.7143    0.0000 C.ar    1  UNL1        0.3708
     27 C          12.0632   -0.2857    0.0000 C.ar    1  UNL1        0.0865
     28 C           8.5551    1.7212    0.0000 C.ar    1  UNL1        0.1366
     29 C           4.2690   -1.7857    0.0000 C.3     1  UNL1        0.1418
     30 C          10.3472    2.7558    0.0000 C.ar    1  UNL1        0.0847
     31 C          12.0632   -1.2857    0.0000 C.ar    1  UNL1       -0.0003
     32 C          12.9292    0.2143    0.0000 C.ar    1  UNL1       -0.0418
     33 C           8.5471    2.7628    0.0000 C.ar    1  UNL1        0.0225
     34 C           9.4492    3.2836    0.0000 C.ar    1  UNL1        0.1293
     35 C          12.9292   -1.7857    0.0000 C.ar    1  UNL1        0.1591
     36 C          13.7953   -0.2857    0.0000 C.ar    1  UNL1       -0.0157
     37 C          13.7953   -1.2857    0.0000 C.ar    1  UNL1        0.1583
     38 C           3.4030   -1.2857    0.0000 C.2     1  UNL1        0.3155
     39 H           7.7331   -3.4057    0.0000 H       1  UNL1        0.0647
     40 H           9.1360   -3.5957    0.0000 H       1  UNL1        0.0648
     41 H           7.7331   -1.1657    0.0000 H       1  UNL1        0.0658
     42 H          10.0021   -2.4757    0.0000 H       1  UNL1        0.0683
     43 H           9.4651   -1.1657    0.0000 H       1  UNL1        0.1084
     44 H           7.2656   -0.8107    0.0000 H       1  UNL1        0.0724
     45 H           6.4685   -0.8107    0.0000 H       1  UNL1        0.0724
     46 H           6.8671   -3.9057    0.0000 H       1  UNL1        0.2100
     47 H           8.0622   -4.5957    0.0000 H       1  UNL1        0.2100
     48 H          10.3312   -3.9057    0.0000 H       1  UNL1        0.2102
     49 H           8.9282   -0.0957    0.0000 H       1  UNL1        0.0667
     50 H           3.8705   -2.2606    0.0000 H       1  UNL1        0.0493
     51 H           4.6675   -2.2606    0.0000 H       1  UNL1        0.0493
     52 H          10.8877    3.0596    0.0000 H       1  UNL1        0.0749
     53 H          11.5263   -1.5957    0.0000 H       1  UNL1        0.0664
     54 H          12.9292    0.8343    0.0000 H       1  UNL1        0.0628
     55 H           8.0090    3.0707    0.0000 H       1  UNL1        0.0691
     56 H          14.3322    0.0243    0.0000 H       1  UNL1        0.0655
     57 H           7.1545    1.5150    0.0000 H       1  UNL1        0.2922
     58 H           8.9173    4.5957    0.0000 H       1  UNL1        0.2921
     59 H          13.4662   -3.0957    0.0000 H       1  UNL1        0.2923
     60 H          15.1982   -1.4757    0.0000 H       1  UNL1        0.2923
     61 H           2.0000   -1.4757    0.0000 H       1  UNL1        0.2951
@<TRIPOS>UNITY_ATOM_ATTR
7 1
charge 1
@<TRIPOS>BOND
     1     1    17    1
     2     1    19    1
     3     2    19    1
     4     2    21    1
     5     3    15    1
     6     3    46    1
     7     4    16    1
     8     4    47    1
     9     5    18    1
    10     5    48    1
    11     6    20    1
    12     6    25    1
    13     7    22   ar
    14     7    26   ar
    15     8    25    2
    16     9    28    1
    17     9    57    1
    18    10    34    1
    19    10    58    1
    20    11    35    1
    21    11    59    1
    22    12    37    1
    23    12    60    1
    24    13    38    1
    25    13    61    1
    26    14    38    2
    27    15    16    1
    28    15    17    1
    29    15    39    1
    30    16    18    1
    31    16    40    1
    32    17    20    1
    33    17    41    1
    34    18    19    1
    35    18    42    1
    36    19    43    1
    37    20    44    1
    38    20    45    1
    39    21    22   ar
    40    21    23   ar
    41    22    27    1
    42    23    24   ar
    43    23    49    1
    44    24    26   ar
    45    24    28   ar
    46    25    29    1
    47    26    30   ar
    48    27    31   ar
    49    27    32   ar
    50    28    33   ar
    51    29    38    1
    52    29    50    1
    53    29    51    1
    54    30    34   ar
    55    30    52    1
    56    31    35   ar
    57    31    53    1
    58    32    36   ar
    59    32    54    1
    60    33    34   ar
    61    33    55    1
    62    35    37   ar
    63    36    37   ar
    64    36    56    1
