@<TRIPOS>MOLECULE
IMPHY013142
 53 57 0 0 0
SMALL
GASTEIGER

@<TRIPOS>ATOM
      1 O           4.2974   -3.6578    0.0000 O.3     1  UNL1       -0.4823
      2 O           6.0530    3.6506    0.0000 O.3     1  UNL1       -0.4857
      3 O           4.3217    0.4964    0.0000 O.2     1  UNL1       -0.4542
      4 O           7.8240    0.4933    0.0000 O.3     1  UNL1       -0.5055
      5 O           2.5357   -2.5487    0.0000 O.3     1  UNL1       -0.5032
      6 O           6.9198   -1.0036    0.0000 O.2     1  UNL1       -0.2863
      7 C           5.2370   -4.2003    0.0000 C.3     1  UNL1        0.1056
      8 C           6.9884    4.2003    0.0000 C.3     1  UNL1        0.1054
      9 C           6.1725   -3.6506    0.0000 C.3     1  UNL1       -0.0093
     10 C           6.1557   -2.5657    0.0000 C.3     1  UNL1       -0.0197
     11 C           7.9280    3.6578    0.0000 C.3     1  UNL1       -0.0092
     12 C           5.2038   -2.0451    0.0000 C.ar    1  UNL1        0.0124
     13 C           7.9197    2.5728    0.0000 C.3     1  UNL1       -0.0171
     14 C           6.9718    2.0449    0.0000 C.ar    1  UNL1        0.0367
     15 C           5.1877   -1.0036    0.0000 C.ar    1  UNL1        0.0716
     16 C           4.3058   -2.5728    0.0000 C.ar    1  UNL1        0.1665
     17 C           6.0697    2.5657    0.0000 C.ar    1  UNL1        0.1314
     18 C           6.0538    0.4964    0.0000 C.ar    1  UNL1        0.1063
     19 C           5.7404   -5.0644    0.0000 C.3     1  UNL1       -0.0252
     20 C           4.7404   -5.0682    0.0000 C.3     1  UNL1       -0.0252
     21 C           6.9638    1.0033    0.0000 C.ar    1  UNL1        0.1379
     22 C           4.3217   -0.5036    0.0000 C.ar    1  UNL1        0.1432
     23 C           5.1877    0.9964    0.0000 C.ar    1  UNL1        0.1463
     24 C           7.4851    5.0682    0.0000 C.3     1  UNL1       -0.0252
     25 C           6.4851    5.0644    0.0000 C.3     1  UNL1       -0.0252
     26 C           6.0538   -0.5036    0.0000 C.ar    1  UNL1        0.2041
     27 C           5.1717    2.0379    0.0000 C.ar    1  UNL1        0.0236
     28 C           3.4037   -2.0520    0.0000 C.ar    1  UNL1        0.1623
     29 C           3.4117   -1.0104    0.0000 C.ar    1  UNL1        0.0265
     30 H           6.3905   -4.2310    0.0000 H       1  UNL1        0.0307
     31 H           6.7816   -3.5351    0.0000 H       1  UNL1        0.0307
     32 H           8.5381    3.5470    0.0000 H       1  UNL1        0.0307
     33 H           8.1416    4.2398    0.0000 H       1  UNL1        0.0307
     34 H           6.7681   -2.6624    0.0000 H       1  UNL1        0.0316
     35 H           6.3558   -1.9788    0.0000 H       1  UNL1        0.0316
     36 H           8.1242    1.9875    0.0000 H       1  UNL1        0.0317
     37 H           8.5313    2.6742    0.0000 H       1  UNL1        0.0317
     38 H           5.2046   -5.3764    0.0000 H       1  UNL1        0.0268
     39 H           6.0524   -5.6001    0.0000 H       1  UNL1        0.0268
     40 H           6.2761   -4.7523    0.0000 H       1  UNL1        0.0268
     41 H           4.2022   -4.7603    0.0000 H       1  UNL1        0.0268
     42 H           4.4324   -5.6064    0.0000 H       1  UNL1        0.0268
     43 H           5.2785   -5.3762    0.0000 H       1  UNL1        0.0268
     44 H           8.0232    4.7603    0.0000 H       1  UNL1        0.0268
     45 H           7.7930    5.6064    0.0000 H       1  UNL1        0.0268
     46 H           6.9469    5.3762    0.0000 H       1  UNL1        0.0268
     47 H           7.0208    5.3764    0.0000 H       1  UNL1        0.0268
     48 H           6.1730    5.6001    0.0000 H       1  UNL1        0.0268
     49 H           5.9493    4.7523    0.0000 H       1  UNL1        0.0268
     50 H           4.6312    2.3417    0.0000 H       1  UNL1        0.0691
     51 H           2.8784   -0.6942    0.0000 H       1  UNL1        0.0692
     52 H           8.3644    0.7971    0.0000 H       1  UNL1        0.2922
     53 H           2.0000   -2.2366    0.0000 H       1  UNL1        0.2923
@<TRIPOS>BOND
     1     1     7    1
     2     1    16    1
     3     2     8    1
     4     2    17    1
     5     3    22   ar
     6     3    23   ar
     7     4    21    1
     8     4    52    1
     9     5    28    1
    10     5    53    1
    11     6    26    2
    12     7     9    1
    13     7    19    1
    14     7    20    1
    15     8    11    1
    16     8    24    1
    17     8    25    1
    18     9    10    1
    19     9    30    1
    20     9    31    1
    21    10    12    1
    22    10    34    1
    23    10    35    1
    24    11    13    1
    25    11    32    1
    26    11    33    1
    27    12    15   ar
    28    12    16   ar
    29    13    14    1
    30    13    36    1
    31    13    37    1
    32    14    17   ar
    33    14    21   ar
    34    15    22   ar
    35    15    26   ar
    36    16    28   ar
    37    17    27   ar
    38    18    21   ar
    39    18    23   ar
    40    18    26   ar
    41    19    38    1
    42    19    39    1
    43    19    40    1
    44    20    41    1
    45    20    42    1
    46    20    43    1
    47    22    29   ar
    48    23    27   ar
    49    24    44    1
    50    24    45    1
    51    24    46    1
    52    25    47    1
    53    25    48    1
    54    25    49    1
    55    27    50    1
    56    28    29   ar
    57    29    51    1
