@<TRIPOS>MOLECULE
IMPHY005622
 64 67 0 0 0
SMALL
GASTEIGER

@<TRIPOS>ATOM
      1 O           8.6793   -1.5062    0.0000 O.3     1  UNL1       -0.4796
      2 O          14.7629    0.1645    0.0000 O.3     1  UNL1       -0.3369
      3 O          13.2629   -0.7015    0.0000 O.3     1  UNL1       -0.4572
      4 O          12.2629    1.0306    0.0000 O.3     1  UNL1       -0.3829
      5 O          13.2629    2.7626    0.0000 O.3     1  UNL1       -0.3864
      6 O           8.3221    1.7981    0.0000 O.3     1  UNL1       -0.3943
      7 O          15.2629    2.7626    0.0000 O.3     1  UNL1       -0.3869
      8 O           6.8671   -2.7015    0.0000 O.3     1  UNL1       -0.5033
      9 O          12.2629   -2.4335    0.0000 O.3     1  UNL1       -0.4914
     10 O           2.5369   -0.2015    0.0000 O.3     1  UNL1       -0.3950
     11 C           8.6793    0.1033    0.0000 C.3     1  UNL1        0.0520
     12 C           9.2629   -0.7015    0.0000 C.3     1  UNL1        0.1344
     13 C           7.7331   -0.2015    0.0000 C.ar    1  UNL1        0.0073
     14 C           7.7331   -1.2015    0.0000 C.ar    1  UNL1        0.1662
     15 C          10.2629   -0.7015    0.0000 C.ar    1  UNL1       -0.0030
     16 C           8.9900    1.0538    0.0000 C.3     1  UNL1        0.0548
     17 C          13.2629    1.0306    0.0000 C.3     1  UNL1        0.1454
     18 C          13.7629    1.8966    0.0000 C.3     1  UNL1        0.1148
     19 C          13.7629    0.1645    0.0000 C.3     1  UNL1        0.2306
     20 C          14.7629    1.8966    0.0000 C.3     1  UNL1        0.1070
     21 C           6.8671    0.2985    0.0000 C.ar    1  UNL1       -0.0512
     22 C          15.2629    1.0306    0.0000 C.3     1  UNL1        0.0802
     23 C           6.0010   -0.2015    0.0000 C.ar    1  UNL1       -0.0433
     24 C           6.8671   -1.7015    0.0000 C.ar    1  UNL1        0.1590
     25 C          10.7629   -1.5675    0.0000 C.ar    1  UNL1       -0.0096
     26 C          10.7629    0.1645    0.0000 C.ar    1  UNL1       -0.0514
     27 C           6.0010   -1.2015    0.0000 C.ar    1  UNL1       -0.0133
     28 C          12.2629   -0.7015    0.0000 C.ar    1  UNL1        0.1654
     29 C           5.1350    0.2985    0.0000 C.3     1  UNL1       -0.0255
     30 C          11.7629   -1.5675    0.0000 C.ar    1  UNL1        0.1620
     31 C          11.7629    0.1645    0.0000 C.ar    1  UNL1       -0.0158
     32 C           4.2690   -0.2015    0.0000 C.3     1  UNL1       -0.0257
     33 C           3.4030    0.2985    0.0000 C.3     1  UNL1        0.0445
     34 C          11.7629   -3.2996    0.0000 C.3     1  UNL1        0.0790
     35 H           8.2418    0.5426    0.0000 H       1  UNL1        0.0412
     36 H           9.5446   -1.2538    0.0000 H       1  UNL1        0.0791
     37 H          12.9529    1.5675    0.0000 H       1  UNL1        0.0683
     38 H          14.0729    2.4335    0.0000 H       1  UNL1        0.0648
     39 H           9.5369    0.7618    0.0000 H       1  UNL1        0.0564
     40 H           9.3725    1.5417    0.0000 H       1  UNL1        0.0564
     41 H          13.1429    0.1645    0.0000 H       1  UNL1        0.1084
     42 H          15.3829    1.8966    0.0000 H       1  UNL1        0.0643
     43 H           6.8671    0.9185    0.0000 H       1  UNL1        0.0624
     44 H          15.7379    0.6320    0.0000 H       1  UNL1        0.0588
     45 H          15.7379    1.4291    0.0000 H       1  UNL1        0.0588
     46 H          10.4529   -2.1044    0.0000 H       1  UNL1        0.0659
     47 H          10.4529    0.7015    0.0000 H       1  UNL1        0.0623
     48 H           5.4641   -1.5115    0.0000 H       1  UNL1        0.0658
     49 H           5.5335    0.7735    0.0000 H       1  UNL1        0.0314
     50 H           4.7365    0.7735    0.0000 H       1  UNL1        0.0314
     51 H          12.0729    0.7015    0.0000 H       1  UNL1        0.0655
     52 H           3.8705   -0.6764    0.0000 H       1  UNL1        0.0290
     53 H           4.6675   -0.6764    0.0000 H       1  UNL1        0.0290
     54 H          11.9529    1.5675    0.0000 H       1  UNL1        0.2102
     55 H          13.5729    3.2996    0.0000 H       1  UNL1        0.2100
     56 H           8.5147    2.3874    0.0000 H       1  UNL1        0.2094
     57 H          15.8829    2.7626    0.0000 H       1  UNL1        0.2100
     58 H           6.3301   -3.0115    0.0000 H       1  UNL1        0.2923
     59 H           3.8015    0.7735    0.0000 H       1  UNL1        0.0557
     60 H           3.0044    0.7735    0.0000 H       1  UNL1        0.0557
     61 H          11.2260   -2.9896    0.0000 H       1  UNL1        0.0660
     62 H          11.4529   -3.8365    0.0000 H       1  UNL1        0.0660
     63 H          12.2999   -3.6096    0.0000 H       1  UNL1        0.0660
     64 H           2.0000    0.1085    0.0000 H       1  UNL1        0.2094
@<TRIPOS>BOND
     1     1    12    1
     2     1    14    1
     3     2    19    1
     4     2    22    1
     5    19     3    1
     6     3    28    1
     7    17     4    1
     8     4    54    1
     9    18     5    1
    10     5    55    1
    11     6    16    1
    12     6    56    1
    13    20     7    1
    14     7    57    1
    15     8    24    1
    16     8    58    1
    17     9    30    1
    18     9    34    1
    19    10    33    1
    20    10    64    1
    21    11    12    1
    22    11    13    1
    23    11    16    1
    24    11    35    1
    25    12    15    1
    26    12    36    1
    27    13    14   ar
    28    13    21   ar
    29    14    24   ar
    30    15    25   ar
    31    15    26   ar
    32    16    39    1
    33    16    40    1
    34    17    18    1
    35    17    19    1
    36    17    37    1
    37    18    20    1
    38    18    38    1
    39    19    41    1
    40    20    22    1
    41    20    42    1
    42    21    23   ar
    43    21    43    1
    44    22    44    1
    45    22    45    1
    46    23    27   ar
    47    23    29    1
    48    24    27   ar
    49    25    30   ar
    50    25    46    1
    51    26    31   ar
    52    26    47    1
    53    27    48    1
    54    28    30   ar
    55    28    31   ar
    56    29    32    1
    57    29    49    1
    58    29    50    1
    59    31    51    1
    60    32    33    1
    61    32    52    1
    62    32    53    1
    63    33    59    1
    64    33    60    1
    65    34    61    1
    66    34    62    1
    67    34    63    1
