@<TRIPOS>MOLECULE
IMPHY013098
 44 45 0 0 0
SMALL
GASTEIGER

@<TRIPOS>ATOM
      1 O           4.2690   -1.8450    0.0000 O.3     1  UNL1       -0.3313
      2 O           4.2690   -4.8450    0.0000 O.3     1  UNL1       -0.3864
      3 O           2.5369   -3.8450    0.0000 O.3     1  UNL1       -0.3865
      4 O           6.0010   -1.8450    0.0000 O.3     1  UNL1       -0.4608
      5 O           6.0010   -3.8450    0.0000 O.3     1  UNL1       -0.3829
      6 O           2.5369   -0.8450    0.0000 O.3     1  UNL1       -0.3924
      7 O           7.7331    4.1550    0.0000 O.3     1  UNL1       -0.4649
      8 O           6.0010    4.1550    0.0000 O.2     1  UNL1       -0.2456
      9 C           3.4030   -3.3450    0.0000 C.3     1  UNL1        0.1120
     10 C           4.2690   -3.8450    0.0000 C.3     1  UNL1        0.1152
     11 C           3.4030   -2.3450    0.0000 C.3     1  UNL1        0.1140
     12 C           5.1350   -3.3450    0.0000 C.3     1  UNL1        0.1454
     13 C           5.1350   -2.3450    0.0000 C.3     1  UNL1        0.2308
     14 C           2.5369   -1.8450    0.0000 C.3     1  UNL1        0.0731
     15 C           6.0010   -0.8450    0.0000 C.ar    1  UNL1        0.1240
     16 C           6.8671   -0.3450    0.0000 C.ar    1  UNL1       -0.0193
     17 C           5.1350   -0.3450    0.0000 C.ar    1  UNL1       -0.0193
     18 C           6.8671    0.6550    0.0000 C.ar    1  UNL1       -0.0511
     19 C           5.1350    0.6550    0.0000 C.ar    1  UNL1       -0.0511
     20 C           6.0010    1.1550    0.0000 C.ar    1  UNL1       -0.0246
     21 C           6.0010    2.1550    0.0000 C.2     1  UNL1       -0.0478
     22 C           6.8671    2.6550    0.0000 C.2     1  UNL1        0.0230
     23 C           6.8671    3.6550    0.0000 C.2     1  UNL1        0.3317
     24 C           7.7331    5.1550    0.0000 C.3     1  UNL1        0.0820
     25 H           3.4030   -3.9650    0.0000 H       1  UNL1        0.0647
     26 H           3.7320   -4.1550    0.0000 H       1  UNL1        0.0648
     27 H           3.4030   -1.7250    0.0000 H       1  UNL1        0.0647
     28 H           5.1350   -3.9650    0.0000 H       1  UNL1        0.0683
     29 H           5.1350   -1.7250    0.0000 H       1  UNL1        0.1084
     30 H           1.9264   -1.7373    0.0000 H       1  UNL1        0.0584
     31 H           2.3249   -2.4276    0.0000 H       1  UNL1        0.0584
     32 H           3.7320   -5.1550    0.0000 H       1  UNL1        0.2100
     33 H           2.0000   -3.5350    0.0000 H       1  UNL1        0.2100
     34 H           6.5380   -3.5350    0.0000 H       1  UNL1        0.2102
     35 H           2.0000   -0.5350    0.0000 H       1  UNL1        0.2095
     36 H           7.4040   -0.6550    0.0000 H       1  UNL1        0.0654
     37 H           4.5981   -0.6550    0.0000 H       1  UNL1        0.0654
     38 H           7.4040    0.9650    0.0000 H       1  UNL1        0.0625
     39 H           4.5981    0.9650    0.0000 H       1  UNL1        0.0625
     40 H           5.4641    2.4650    0.0000 H       1  UNL1        0.0626
     41 H           7.4040    2.3450    0.0000 H       1  UNL1        0.0689
     42 H           8.3531    5.1550    0.0000 H       1  UNL1        0.0661
     43 H           7.7331    5.7750    0.0000 H       1  UNL1        0.0661
     44 H           7.1131    5.1550    0.0000 H       1  UNL1        0.0661
@<TRIPOS>BOND
     1     1    11    1
     2     1    13    1
     3    10     2    1
     4     2    32    1
     5     9     3    1
     6     3    33    1
     7    13     4    1
     8     4    15    1
     9    12     5    1
    10     5    34    1
    11     6    14    1
    12     6    35    1
    13     7    23    1
    14     7    24    1
    15     8    23    2
    16     9    10    1
    17     9    11    1
    18     9    25    1
    19    10    12    1
    20    10    26    1
    21    11    14    1
    22    11    27    1
    23    12    13    1
    24    12    28    1
    25    13    29    1
    26    14    30    1
    27    14    31    1
    28    15    16   ar
    29    15    17   ar
    30    16    18   ar
    31    16    36    1
    32    17    19   ar
    33    17    37    1
    34    18    20   ar
    35    18    38    1
    36    19    20   ar
    37    19    39    1
    38    20    21    1
    39    21    22    2
    40    21    40    1
    41    22    23    1
    42    22    41    1
    43    24    42    1
    44    24    43    1
    45    24    44    1
