@<TRIPOS>MOLECULE
IMPHY005342
 36 40 0 0 0
SMALL
GASTEIGER

@<TRIPOS>ATOM
      1 O           7.3092    0.7936    0.0000 O.3     1  UNL1       -0.4520
      2 O           7.3092    2.4031    0.0000 O.3     1  UNL1       -0.4526
      3 N           2.8816    1.1197    0.0000 N.pl3   1  UNL1       -0.3321
      4 C           4.6309    1.0984    0.0000 C.ar    1  UNL1        0.0107
      5 C           4.6309    2.0984    0.0000 C.ar    1  UNL1       -0.0327
      6 C           3.7209    0.5915    0.0000 C.ar    1  UNL1        0.0382
      7 C           3.7727    2.5953    0.0000 C.3     1  UNL1       -0.0112
      8 C           5.4969    0.5984    0.0000 C.ar    1  UNL1        0.0373
      9 C           2.9072    2.1111    0.0000 C.3     1  UNL1        0.0159
     10 C           5.5130   -0.4431    0.0000 C.ar    1  UNL1       -0.0064
     11 C           6.3629    1.0984    0.0000 C.ar    1  UNL1        0.1745
     12 C           5.4969    2.5984    0.0000 C.ar    1  UNL1       -0.0123
     13 C           3.7129   -0.4501    0.0000 C.ar    1  UNL1       -0.0323
     14 C           4.6149   -0.9709    0.0000 C.ar    1  UNL1       -0.0154
     15 C           6.3629    2.0984    0.0000 C.ar    1  UNL1        0.1671
     16 C           2.0000    0.6477    0.0000 C.3     1  UNL1        0.0007
     17 C           6.4649   -0.9638    0.0000 C.ar    1  UNL1       -0.0533
     18 C           4.6066   -2.0559    0.0000 C.ar    1  UNL1       -0.0540
     19 C           7.8928    1.5984    0.0000 C.3     1  UNL1        0.2333
     20 C           6.4816   -2.0486    0.0000 C.ar    1  UNL1       -0.0611
     21 C           5.5462   -2.5984    0.0000 C.ar    1  UNL1       -0.0612
     22 H           4.1737    3.0681    0.0000 H       1  UNL1        0.0329
     23 H           3.3786    3.0740    0.0000 H       1  UNL1        0.0329
     24 H           2.7054    2.6974    0.0000 H       1  UNL1        0.0467
     25 H           2.2944    2.0168    0.0000 H       1  UNL1        0.0467
     26 H           5.4969    3.2184    0.0000 H       1  UNL1        0.0658
     27 H           3.1747   -0.7580    0.0000 H       1  UNL1        0.0642
     28 H           1.7073    1.1943    0.0000 H       1  UNL1        0.0428
     29 H           1.4534    0.3550    0.0000 H       1  UNL1        0.0428
     30 H           2.2927    0.1011    0.0000 H       1  UNL1        0.0428
     31 H           6.9958   -0.6435    0.0000 H       1  UNL1        0.0624
     32 H           4.0684   -2.3638    0.0000 H       1  UNL1        0.0624
     33 H           8.3536    1.1836    0.0000 H       1  UNL1        0.1166
     34 H           8.3536    2.0131    0.0000 H       1  UNL1        0.1166
     35 H           7.0221   -2.3524    0.0000 H       1  UNL1        0.0618
     36 H           5.5486   -3.2184    0.0000 H       1  UNL1        0.0618
@<TRIPOS>BOND
     1     1    11    1
     2     1    19    1
     3     2    15    1
     4     2    19    1
     5     3     6    1
     6     3     9    1
     7     3    16    1
     8     4     5   ar
     9     4     6   ar
    10     4     8   ar
    11     5     7    1
    12     5    12   ar
    13     6    13   ar
    14     7     9    1
    15     7    22    1
    16     7    23    1
    17     8    10   ar
    18     8    11   ar
    19     9    24    1
    20     9    25    1
    21    10    14   ar
    22    10    17   ar
    23    11    15   ar
    24    12    15   ar
    25    12    26    1
    26    13    14   ar
    27    13    27    1
    28    14    18   ar
    29    16    28    1
    30    16    29    1
    31    16    30    1
    32    17    20   ar
    33    17    31    1
    34    18    21   ar
    35    18    32    1
    36    19    33    1
    37    19    34    1
    38    20    21   ar
    39    20    35    1
    40    21    36    1
