@<TRIPOS>MOLECULE
IMPHY015932
 41 42 0 0 0
SMALL
GASTEIGER

@<TRIPOS>ATOM
      1 O           2.7369    0.5429    0.0000 O.3     1  UNL1       -0.3597
      2 O           5.6137   -2.6466    0.0000 O.2     1  UNL1       -0.2943
      3 C           3.9735   -0.3058    0.0000 C.3     1  UNL1       -0.0052
      4 C           3.6030    1.0429    0.0000 C.3     1  UNL1        0.0715
      5 C           3.7147   -1.2717    0.0000 C.3     1  UNL1        0.1249
      6 C           2.0000   -0.9240    0.0000 C.3     1  UNL1       -0.0442
      7 C           2.3420   -1.8637    0.0000 C.3     1  UNL1       -0.0167
      8 C           5.3725   -0.8146    0.0000 C.3     1  UNL1        0.0141
      9 C           5.1137   -1.7805    0.0000 C.2     1  UNL1        0.1650
     10 C           4.3101    1.7500    0.0000 C.3     1  UNL1       -0.0203
     11 C           3.3441    2.0088    0.0000 C.3     1  UNL1       -0.0355
     12 C           3.4559   -2.2376    0.0000 C.3     1  UNL1       -0.0288
     13 C           5.2760    1.4912    0.0000 C.3     1  UNL1       -0.0319
     14 C           5.9831    2.1983    0.0000 C.2     1  UNL1       -0.0852
     15 C           6.9490    1.9394    0.0000 C.2     1  UNL1       -0.0796
     16 C           7.6561    2.6466    0.0000 C.3     1  UNL1       -0.0440
     17 C           7.2078    0.9735    0.0000 C.3     1  UNL1       -0.0440
     18 H           3.9595   -0.9256    0.0000 H       1  UNL1        0.0332
     19 H           1.8057   -0.3353    0.0000 H       1  UNL1        0.0270
     20 H           1.4142   -1.1272    0.0000 H       1  UNL1        0.0270
     21 H           1.7636   -2.0870    0.0000 H       1  UNL1        0.0297
     22 H           2.5765   -2.4377    0.0000 H       1  UNL1        0.0297
     23 H           5.9664   -0.9924    0.0000 H       1  UNL1        0.0346
     24 H           5.5674   -0.2260    0.0000 H       1  UNL1        0.0346
     25 H           4.5721    2.3119    0.0000 H       1  UNL1        0.0296
     26 H           3.8022    2.1056    0.0000 H       1  UNL1        0.0296
     27 H           3.9430    2.1693    0.0000 H       1  UNL1        0.0257
     28 H           3.1837    2.6077    0.0000 H       1  UNL1        0.0257
     29 H           2.7453    1.8483    0.0000 H       1  UNL1        0.0257
     30 H           2.8570   -2.0772    0.0000 H       1  UNL1        0.0262
     31 H           3.2954   -2.8365    0.0000 H       1  UNL1        0.0262
     32 H           4.0548   -2.3981    0.0000 H       1  UNL1        0.0262
     33 H           5.0140    0.9292    0.0000 H       1  UNL1        0.0308
     34 H           5.7839    1.1355    0.0000 H       1  UNL1        0.0308
     35 H           5.8226    2.7971    0.0000 H       1  UNL1        0.0571
     36 H           8.0945    2.2081    0.0000 H       1  UNL1        0.0274
     37 H           8.0945    3.0850    0.0000 H       1  UNL1        0.0274
     38 H           7.2177    3.0850    0.0000 H       1  UNL1        0.0274
     39 H           6.6090    0.8130    0.0000 H       1  UNL1        0.0274
     40 H           7.3683    0.3746    0.0000 H       1  UNL1        0.0274
     41 H           7.8067    1.1340    0.0000 H       1  UNL1        0.0274
@<TRIPOS>BOND
     1     1     4    1
     2     1     5    1
     3     2     9    2
     4     3     4    1
     5     3     6    1
     6     3     8    1
     7     3    18    1
     8     4    10    1
     9     4    11    1
    10     5     7    1
    11     5     9    1
    12     5    12    1
    13     6     7    1
    14     6    19    1
    15     6    20    1
    16     7    21    1
    17     7    22    1
    18     8     9    1
    19     8    23    1
    20     8    24    1
    21    10    13    1
    22    10    25    1
    23    10    26    1
    24    11    27    1
    25    11    28    1
    26    11    29    1
    27    12    30    1
    28    12    31    1
    29    12    32    1
    30    13    14    1
    31    13    33    1
    32    13    34    1
    33    14    15    2
    34    14    35    1
    35    15    16    1
    36    15    17    1
    37    16    36    1
    38    16    37    1
    39    16    38    1
    40    17    39    1
    41    17    40    1
    42    17    41    1
