@<TRIPOS>MOLECULE
IMPHY013757
 15 14 0 0 0
SMALL
GASTEIGER

@<TRIPOS>ATOM
      1 N           6.3301   -0.5000    0.0000 N.1     1  UNL1       -0.1966
      2 C           3.7320    0.0000    0.0000 C.3     1  UNL1       -0.0405
      3 C           2.8660    0.5000    0.0000 C.3     1  UNL1       -0.0550
      4 C           4.5981    0.5000    0.0000 C.3     1  UNL1        0.0348
      5 C           2.0000   -0.0000    0.0000 C.3     1  UNL1       -0.0652
      6 C           5.4641    0.0000    0.0000 C.1     1  UNL1        0.0625
      7 H           3.3335   -0.4749    0.0000 H       1  UNL1        0.0275
      8 H           4.1306   -0.4749    0.0000 H       1  UNL1        0.0275
      9 H           3.2646    0.9749    0.0000 H       1  UNL1        0.0263
     10 H           2.4675    0.9749    0.0000 H       1  UNL1        0.0263
     11 H           4.9966    0.9749    0.0000 H       1  UNL1        0.0418
     12 H           4.1996    0.9749    0.0000 H       1  UNL1        0.0418
     13 H           1.6900    0.5369    0.0000 H       1  UNL1        0.0230
     14 H           1.4631   -0.3100    0.0000 H       1  UNL1        0.0230
     15 H           2.3100   -0.5369    0.0000 H       1  UNL1        0.0230
@<TRIPOS>BOND
     1     1     6    3
     2     2     3    1
     3     2     4    1
     4     2     7    1
     5     2     8    1
     6     3     5    1
     7     3     9    1
     8     3    10    1
     9     4     6    1
    10     4    11    1
    11     4    12    1
    12     5    13    1
    13     5    14    1
    14     5    15    1
