@<TRIPOS>MOLECULE
IMPHY005343
 70 67 0 0 0
SMALL
GASTEIGER

@<TRIPOS>ATOM
      1 P          12.3923    3.1340    0.0000 P.3     1  UNL1        0.0000
      2 P          14.1244    3.1340    0.0000 P.3     1  UNL1        0.0000
      3 NA         12.3923    4.8660    0.0000 Na      2  UNL2        0.0000
      4 NA         14.1244    4.8660    0.0000 Na      3  UNL3        0.0000
      5 O           8.9282    3.1340    0.0000 O.3     1  UNL1        0.0000
      6 O           8.9282    1.1340    0.0000 O.3     1  UNL1        0.0000
      7 O          11.5263    2.6340    0.0000 O.3     1  UNL1        0.0000
      8 O           8.0622    1.6340    0.0000 O.2     1  UNL1        0.0000
      9 O           9.7942   -0.3660    0.0000 O.2     1  UNL1        0.0000
     10 O          13.2583    3.6340    0.0000 O.3     1  UNL1        0.0000
     11 O          11.8923    4.0000    0.0000 O.co2   1  UNL1       -0.5000
     12 O          12.8923    2.2680    0.0000 O.2     1  UNL1       -0.5000
     13 O          14.9904    2.6340    0.0000 O.3     1  UNL1        0.0000
     14 O          14.6244    4.0000    0.0000 O.co2   1  UNL1       -0.5000
     15 O          13.6244    2.2680    0.0000 O.2     1  UNL1       -0.5000
     16 C           5.4641    3.1340    0.0000 C.3     1  UNL1        0.0000
     17 C           4.5981    2.6340    0.0000 C.3     1  UNL1        0.0000
     18 C           7.1962   -1.8660    0.0000 C.3     1  UNL1        0.0000
     19 C           7.1962   -2.8660    0.0000 C.3     1  UNL1        0.0000
     20 C           6.3301    2.6340    0.0000 C.3     1  UNL1        0.0000
     21 C           3.7320    3.1340    0.0000 C.3     1  UNL1        0.0000
     22 C           8.0622   -1.3660    0.0000 C.3     1  UNL1        0.0000
     23 C           6.3301   -3.3660    0.0000 C.3     1  UNL1        0.0000
     24 C           7.1962    3.1340    0.0000 C.3     1  UNL1        0.0000
     25 C           8.0622   -0.3660    0.0000 C.3     1  UNL1        0.0000
     26 C           2.8660    2.6340    0.0000 C.3     1  UNL1        0.0000
     27 C           6.3301   -4.3660    0.0000 C.3     1  UNL1        0.0000
     28 C           9.7942    2.6340    0.0000 C.3     1  UNL1        0.0000
     29 C           9.7942    1.6340    0.0000 C.3     1  UNL1        0.0000
     30 C           8.0622    2.6340    0.0000 C.2     1  UNL1        0.0000
     31 C           8.9282    0.1340    0.0000 C.2     1  UNL1        0.0000
     32 C          10.6603    3.1340    0.0000 C.3     1  UNL1        0.0000
     33 C           2.0000    3.1340    0.0000 C.3     1  UNL1        0.0000
     34 C           5.4641   -4.8660    0.0000 C.3     1  UNL1        0.0000
     35 H           5.8626    3.6089    0.0000 H       1  UNL1        0.0000
     36 H           5.0656    3.6089    0.0000 H       1  UNL1        0.0000
     37 H           4.1996    2.1590    0.0000 H       1  UNL1        0.0000
     38 H           4.9966    2.1590    0.0000 H       1  UNL1        0.0000
     39 H           6.9841   -1.2834    0.0000 H       1  UNL1        0.0000
     40 H           6.5856   -1.9737    0.0000 H       1  UNL1        0.0000
     41 H           7.4082   -3.4486    0.0000 H       1  UNL1        0.0000
     42 H           7.8067   -2.7584    0.0000 H       1  UNL1        0.0000
     43 H           5.9316    2.1590    0.0000 H       1  UNL1        0.0000
     44 H           6.7287    2.1590    0.0000 H       1  UNL1        0.0000
     45 H           4.1306    3.6089    0.0000 H       1  UNL1        0.0000
     46 H           3.3335    3.6089    0.0000 H       1  UNL1        0.0000
     47 H           8.2742   -1.9486    0.0000 H       1  UNL1        0.0000
     48 H           8.6728   -1.2584    0.0000 H       1  UNL1        0.0000
     49 H           6.1181   -2.7834    0.0000 H       1  UNL1        0.0000
     50 H           5.7196   -3.4737    0.0000 H       1  UNL1        0.0000
     51 H           7.5947    3.6089    0.0000 H       1  UNL1        0.0000
     52 H           6.7976    3.6089    0.0000 H       1  UNL1        0.0000
     53 H           7.8501    0.2166    0.0000 H       1  UNL1        0.0000
     54 H           7.4516   -0.4737    0.0000 H       1  UNL1        0.0000
     55 H           2.4675    2.1590    0.0000 H       1  UNL1        0.0000
     56 H           3.2646    2.1590    0.0000 H       1  UNL1        0.0000
     57 H           6.5422   -4.9486    0.0000 H       1  UNL1        0.0000
     58 H           6.9407   -4.2584    0.0000 H       1  UNL1        0.0000
     59 H           9.2573    2.3240    0.0000 H       1  UNL1        0.0000
     60 H          10.0063    1.0514    0.0000 H       1  UNL1        0.0000
     61 H          10.4048    1.7416    0.0000 H       1  UNL1        0.0000
     62 H          11.0588    3.6089    0.0000 H       1  UNL1        0.0000
     63 H          10.2617    3.6089    0.0000 H       1  UNL1        0.0000
     64 H           2.3100    3.6709    0.0000 H       1  UNL1        0.0000
     65 H           1.4631    3.4440    0.0000 H       1  UNL1        0.0000
     66 H           1.6900    2.5970    0.0000 H       1  UNL1        0.0000
     67 H           5.1541   -4.3291    0.0000 H       1  UNL1        0.0000
     68 H           4.9272   -5.1760    0.0000 H       1  UNL1        0.0000
     69 H           5.7741   -5.4030    0.0000 H       1  UNL1        0.0000
     70 H          15.5273    2.9440    0.0000 H       1  UNL1        0.0000
@<TRIPOS>UNITY_ATOM_ATTR
3 1
charge 1
4 1
charge 1
11 1
charge -1
14 1
charge -1
@<TRIPOS>BOND
     1     1     7    1
     2     1    10    1
     3     1    11    1
     4     1    12    2
     5     2    10    1
     6     2    13    1
     7     2    14    1
     8     2    15    2
     9    28     5    1
    10     5    30    1
    11     6    29    1
    12     6    31    1
    13     7    32    1
    14     8    30    2
    15     9    31    2
    16    13    70    1
    17    16    17    1
    18    16    20    1
    19    16    35    1
    20    16    36    1
    21    17    21    1
    22    17    37    1
    23    17    38    1
    24    18    19    1
    25    18    22    1
    26    18    39    1
    27    18    40    1
    28    19    23    1
    29    19    41    1
    30    19    42    1
    31    20    24    1
    32    20    43    1
    33    20    44    1
    34    21    26    1
    35    21    45    1
    36    21    46    1
    37    22    25    1
    38    22    47    1
    39    22    48    1
    40    23    27    1
    41    23    49    1
    42    23    50    1
    43    24    30    1
    44    24    51    1
    45    24    52    1
    46    25    31    1
    47    25    53    1
    48    25    54    1
    49    26    33    1
    50    26    55    1
    51    26    56    1
    52    27    34    1
    53    27    57    1
    54    27    58    1
    55    28    29    1
    56    28    32    1
    57    28    59    1
    58    29    60    1
    59    29    61    1
    60    32    62    1
    61    32    63    1
    62    33    64    1
    63    33    65    1
    64    33    66    1
    65    34    67    1
    66    34    68    1
    67    34    69    1
