@<TRIPOS>MOLECULE
IMPHY016408
 38 37 0 0 0
SMALL
GASTEIGER

@<TRIPOS>ATOM
      1 C           6.3301    0.2500    0.0000 C.3     1  UNL1       -0.0528
      2 C           5.4641   -0.2500    0.0000 C.3     1  UNL1       -0.0528
      3 C           7.1962   -0.2500    0.0000 C.3     1  UNL1       -0.0505
      4 C           4.5981    0.2500    0.0000 C.3     1  UNL1       -0.0505
      5 C           8.0622    0.2500    0.0000 C.3     1  UNL1       -0.0441
      6 C           3.7320   -0.2500    0.0000 C.3     1  UNL1       -0.0441
      7 C           8.9282   -0.2500    0.0000 C.3     1  UNL1       -0.0533
      8 C           2.8660    0.2500    0.0000 C.3     1  UNL1       -0.0533
      9 C           8.0622    1.2500    0.0000 C.3     1  UNL1       -0.0624
     10 C           3.7320   -1.2500    0.0000 C.3     1  UNL1       -0.0624
     11 C           9.7942    0.2500    0.0000 C.3     1  UNL1       -0.0650
     12 C           2.0000   -0.2500    0.0000 C.3     1  UNL1       -0.0650
     13 H           6.7287    0.7249    0.0000 H       1  UNL1        0.0265
     14 H           5.9316    0.7249    0.0000 H       1  UNL1        0.0265
     15 H           5.0656   -0.7249    0.0000 H       1  UNL1        0.0265
     16 H           5.8626   -0.7249    0.0000 H       1  UNL1        0.0265
     17 H           6.7976   -0.7249    0.0000 H       1  UNL1        0.0268
     18 H           7.5947   -0.7249    0.0000 H       1  UNL1        0.0268
     19 H           4.9966    0.7249    0.0000 H       1  UNL1        0.0268
     20 H           4.1996    0.7249    0.0000 H       1  UNL1        0.0268
     21 H           7.5252    0.5600    0.0000 H       1  UNL1        0.0298
     22 H           4.2690   -0.5600    0.0000 H       1  UNL1        0.0298
     23 H           8.5297   -0.7249    0.0000 H       1  UNL1        0.0265
     24 H           9.3267   -0.7249    0.0000 H       1  UNL1        0.0265
     25 H           3.2646    0.7249    0.0000 H       1  UNL1        0.0265
     26 H           2.4675    0.7249    0.0000 H       1  UNL1        0.0265
     27 H           8.6822    1.2500    0.0000 H       1  UNL1        0.0232
     28 H           8.0622    1.8700    0.0000 H       1  UNL1        0.0232
     29 H           7.4422    1.2500    0.0000 H       1  UNL1        0.0232
     30 H           3.1120   -1.2500    0.0000 H       1  UNL1        0.0232
     31 H           3.7320   -1.8700    0.0000 H       1  UNL1        0.0232
     32 H           4.3520   -1.2500    0.0000 H       1  UNL1        0.0232
     33 H          10.1042   -0.2869    0.0000 H       1  UNL1        0.0230
     34 H          10.3312    0.5600    0.0000 H       1  UNL1        0.0230
     35 H           9.4842    0.7869    0.0000 H       1  UNL1        0.0230
     36 H           1.6900    0.2869    0.0000 H       1  UNL1        0.0230
     37 H           1.4631   -0.5600    0.0000 H       1  UNL1        0.0230
     38 H           2.3100   -0.7869    0.0000 H       1  UNL1        0.0230
@<TRIPOS>BOND
     1     1     2    1
     2     1     3    1
     3     1    13    1
     4     1    14    1
     5     2     4    1
     6     2    15    1
     7     2    16    1
     8     3     5    1
     9     3    17    1
    10     3    18    1
    11     4     6    1
    12     4    19    1
    13     4    20    1
    14     5     7    1
    15     5     9    1
    16     5    21    1
    17     6     8    1
    18     6    10    1
    19     6    22    1
    20     7    11    1
    21     7    23    1
    22     7    24    1
    23     8    12    1
    24     8    25    1
    25     8    26    1
    26     9    27    1
    27     9    28    1
    28     9    29    1
    29    10    30    1
    30    10    31    1
    31    10    32    1
    32    11    33    1
    33    11    34    1
    34    11    35    1
    35    12    36    1
    36    12    37    1
    37    12    38    1
