@<TRIPOS>MOLECULE
IMPHY008893
 54 57 0 0 0
SMALL
GASTEIGER

@<TRIPOS>ATOM
      1 O           5.1350   -2.0269    0.0000 O.3     1  UNL1       -0.3313
      2 O           6.8671   -2.0269    0.0000 O.3     1  UNL1       -0.4606
      3 O           5.1350   -5.0269    0.0000 O.3     1  UNL1       -0.3864
      4 O           3.4030   -4.0269    0.0000 O.3     1  UNL1       -0.3865
      5 O           6.8671   -4.0269    0.0000 O.3     1  UNL1       -0.3829
      6 O           2.5369   -2.5269    0.0000 O.3     1  UNL1       -0.3924
      7 O           8.6230    1.0356    0.0000 O.2     1  UNL1       -0.4507
      8 O           5.1208    1.0523    0.0000 O.3     1  UNL1       -0.5058
      9 O           7.7666    3.5390    0.0000 O.3     1  UNL1       -0.5007
     10 O           6.0308    2.5457    0.0000 O.2     1  UNL1       -0.2830
     11 O          10.3705    5.0289    0.0000 O.3     1  UNL1       -0.5032
     12 O          12.0910    2.0223    0.0000 O.3     1  UNL1       -0.5032
     13 O          12.0987    4.0223    0.0000 O.3     1  UNL1       -0.5009
     14 C           5.1350   -4.0269    0.0000 C.3     1  UNL1        0.1152
     15 C           4.2690   -3.5269    0.0000 C.3     1  UNL1        0.1120
     16 C           6.0010   -3.5269    0.0000 C.3     1  UNL1        0.1454
     17 C           4.2690   -2.5269    0.0000 C.3     1  UNL1        0.1140
     18 C           6.0010   -2.5269    0.0000 C.3     1  UNL1        0.2308
     19 C           3.4030   -2.0269    0.0000 C.3     1  UNL1        0.0731
     20 C           6.8671   -1.0269    0.0000 C.ar    1  UNL1        0.1310
     21 C           7.7671   -0.5026    0.0000 C.ar    1  UNL1        0.0235
     22 C           5.9670   -0.5026    0.0000 C.ar    1  UNL1        0.0226
     23 C           7.7551    0.5390    0.0000 C.ar    1  UNL1        0.1465
     24 C           6.8910    1.0423    0.0000 C.ar    1  UNL1        0.1092
     25 C           5.9790    0.5390    0.0000 C.ar    1  UNL1        0.1348
     26 C           6.8948    2.0423    0.0000 C.ar    1  UNL1        0.2379
     27 C           8.6269    2.0356    0.0000 C.ar    1  UNL1        0.1808
     28 C           7.7628    2.5390    0.0000 C.ar    1  UNL1        0.2082
     29 C           9.4948    2.5323    0.0000 C.ar    1  UNL1        0.0282
     30 C          10.3589    2.0290    0.0000 C.ar    1  UNL1       -0.0055
     31 C           9.4987    3.5323    0.0000 C.ar    1  UNL1       -0.0055
     32 C          10.3666    4.0289    0.0000 C.ar    1  UNL1        0.1626
     33 C          11.2269    2.5256    0.0000 C.ar    1  UNL1        0.1626
     34 C          11.2307    3.5256    0.0000 C.ar    1  UNL1        0.2006
     35 H           5.6720   -4.3369    0.0000 H       1  UNL1        0.0648
     36 H           4.2690   -4.1469    0.0000 H       1  UNL1        0.0647
     37 H           6.5380   -3.2169    0.0000 H       1  UNL1        0.0683
     38 H           4.2690   -1.9069    0.0000 H       1  UNL1        0.0647
     39 H           6.0010   -1.9069    0.0000 H       1  UNL1        0.1084
     40 H           3.8015   -1.5519    0.0000 H       1  UNL1        0.0584
     41 H           3.0044   -1.5519    0.0000 H       1  UNL1        0.0584
     42 H           4.5981   -5.3369    0.0000 H       1  UNL1        0.2100
     43 H           3.4030   -4.6469    0.0000 H       1  UNL1        0.2100
     44 H           6.8671   -4.6469    0.0000 H       1  UNL1        0.2102
     45 H           2.0000   -2.2169    0.0000 H       1  UNL1        0.2095
     46 H           8.3064   -0.8084    0.0000 H       1  UNL1        0.0691
     47 H           5.4277   -0.8084    0.0000 H       1  UNL1        0.0691
     48 H           4.5792    0.7506    0.0000 H       1  UNL1        0.2922
     49 H          10.3565    1.4090    0.0000 H       1  UNL1        0.0662
     50 H           8.9630    3.8444    0.0000 H       1  UNL1        0.0662
     51 H           7.2309    3.8510    0.0000 H       1  UNL1        0.2924
     52 H          10.9086    5.3369    0.0000 H       1  UNL1        0.2923
     53 H          12.0886    1.4023    0.0000 H       1  UNL1        0.2923
     54 H          12.6344    3.7102    0.0000 H       1  UNL1        0.2924
@<TRIPOS>BOND
     1     1    17    1
     2     1    18    1
     3    18     2    1
     4     2    20    1
     5    14     3    1
     6     3    42    1
     7    15     4    1
     8     4    43    1
     9     5    16    1
    10     5    44    1
    11     6    19    1
    12     6    45    1
    13     7    23   ar
    14     7    27   ar
    15     8    25    1
    16     8    48    1
    17     9    28    1
    18     9    51    1
    19    10    26    2
    20    11    32    1
    21    11    52    1
    22    12    33    1
    23    12    53    1
    24    13    34    1
    25    13    54    1
    26    14    15    1
    27    14    16    1
    28    14    35    1
    29    15    17    1
    30    15    36    1
    31    16    18    1
    32    16    37    1
    33    17    19    1
    34    17    38    1
    35    18    39    1
    36    19    40    1
    37    19    41    1
    38    20    21   ar
    39    20    22   ar
    40    21    23   ar
    41    21    46    1
    42    22    25   ar
    43    22    47    1
    44    23    24   ar
    45    24    25   ar
    46    24    26   ar
    47    26    28   ar
    48    27    28   ar
    49    27    29    1
    50    29    30   ar
    51    29    31   ar
    52    30    33   ar
    53    30    49    1
    54    31    32   ar
    55    31    50    1
    56    32    34   ar
    57    33    34   ar
