@<TRIPOS>MOLECULE
IMPHY016499
 34 33 0 0 0
SMALL
GASTEIGER

@<TRIPOS>ATOM
      1 O           5.4641    0.7500    0.0000 O.3     1  UNL1       -0.3516
      2 O           3.7320    0.7500    0.0000 O.3     1  UNL1       -0.3519
      3 C           8.0622    0.2500    0.0000 C.3     1  UNL1       -0.0510
      4 C           7.1962    0.7500    0.0000 C.3     1  UNL1       -0.0294
      5 C           8.9282    0.7500    0.0000 C.3     1  UNL1       -0.0532
      6 C           6.3301    0.2500    0.0000 C.3     1  UNL1        0.0506
      7 C           9.7942    0.2500    0.0000 C.3     1  UNL1       -0.0559
      8 C           4.5981    0.2500    0.0000 C.3     1  UNL1        0.1563
      9 C          10.6603    0.7500    0.0000 C.3     1  UNL1       -0.0653
     10 C           4.5981   -0.7500    0.0000 C.3     1  UNL1       -0.0136
     11 C           2.8660    0.2500    0.0000 C.3     1  UNL1        0.0478
     12 C           2.0000    0.7500    0.0000 C.3     1  UNL1       -0.0415
     13 H           7.6636   -0.2249    0.0000 H       1  UNL1        0.0266
     14 H           8.4607   -0.2249    0.0000 H       1  UNL1        0.0266
     15 H           7.5947    1.2250    0.0000 H       1  UNL1        0.0287
     16 H           6.7976    1.2250    0.0000 H       1  UNL1        0.0287
     17 H           9.3267    1.2250    0.0000 H       1  UNL1        0.0265
     18 H           8.5297    1.2250    0.0000 H       1  UNL1        0.0265
     19 H           5.9316   -0.2249    0.0000 H       1  UNL1        0.0561
     20 H           6.7287   -0.2249    0.0000 H       1  UNL1        0.0561
     21 H           9.3957   -0.2249    0.0000 H       1  UNL1        0.0263
     22 H          10.1928   -0.2249    0.0000 H       1  UNL1        0.0263
     23 H           4.5981    0.8700    0.0000 H       1  UNL1        0.0906
     24 H          10.9703    0.2131    0.0000 H       1  UNL1        0.0230
     25 H          11.1972    1.0600    0.0000 H       1  UNL1        0.0230
     26 H          10.3503    1.2869    0.0000 H       1  UNL1        0.0230
     27 H           3.9781   -0.7500    0.0000 H       1  UNL1        0.0278
     28 H           4.5981   -1.3700    0.0000 H       1  UNL1        0.0278
     29 H           5.2181   -0.7500    0.0000 H       1  UNL1        0.0278
     30 H           2.4675   -0.2249    0.0000 H       1  UNL1        0.0558
     31 H           3.2646   -0.2249    0.0000 H       1  UNL1        0.0558
     32 H           2.3100    1.2869    0.0000 H       1  UNL1        0.0252
     33 H           1.4631    1.0600    0.0000 H       1  UNL1        0.0252
     34 H           1.6900    0.2131    0.0000 H       1  UNL1        0.0252
@<TRIPOS>BOND
     1     1     6    1
     2     1     8    1
     3     2     8    1
     4     2    11    1
     5     3     4    1
     6     3     5    1
     7     3    13    1
     8     3    14    1
     9     4     6    1
    10     4    15    1
    11     4    16    1
    12     5     7    1
    13     5    17    1
    14     5    18    1
    15     6    19    1
    16     6    20    1
    17     7     9    1
    18     7    21    1
    19     7    22    1
    20     8    10    1
    21     8    23    1
    22     9    24    1
    23     9    25    1
    24     9    26    1
    25    10    27    1
    26    10    28    1
    27    10    29    1
    28    11    12    1
    29    11    30    1
    30    11    31    1
    31    12    32    1
    32    12    33    1
    33    12    34    1
