@<TRIPOS>MOLECULE
IMPHY004051
 37 39 0 0 0
SMALL
GASTEIGER

@<TRIPOS>ATOM
      1 O           6.3981   -0.1754    0.0000 O.2     1  UNL1       -0.4544
      2 O           2.8680   -0.1995    0.0000 O.3     1  UNL1       -0.4949
      3 O           4.6497    2.8592    0.0000 O.3     1  UNL1       -0.5058
      4 O           8.9962   -2.6754    0.0000 O.3     1  UNL1       -0.4914
      5 O           6.3981    2.8246    0.0000 O.2     1  UNL1       -0.2869
      6 O          10.7282   -1.6754    0.0000 O.3     1  UNL1       -0.5033
      7 C           5.5320    1.3246    0.0000 C.ar    1  UNL1        0.1055
      8 C           5.5320    0.3246    0.0000 C.ar    1  UNL1        0.1462
      9 C           7.2641    0.3246    0.0000 C.ar    1  UNL1        0.1393
     10 C           8.1301   -0.1754    0.0000 C.ar    1  UNL1        0.0211
     11 C           6.3981    1.8246    0.0000 C.ar    1  UNL1        0.1966
     12 C           7.2641    1.3246    0.0000 C.ar    1  UNL1        0.0288
     13 C           4.6381    1.8593    0.0000 C.ar    1  UNL1        0.1347
     14 C           4.6381   -0.2101    0.0000 C.ar    1  UNL1        0.0233
     15 C           3.7320    0.3038    0.0000 C.ar    1  UNL1        0.1271
     16 C           3.7320    1.3454    0.0000 C.ar    1  UNL1        0.0225
     17 C           8.1301   -1.1754    0.0000 C.ar    1  UNL1       -0.0057
     18 C           8.9962    0.3246    0.0000 C.ar    1  UNL1       -0.0474
     19 C           8.9962   -1.6754    0.0000 C.ar    1  UNL1        0.1619
     20 C           9.8622   -0.1754    0.0000 C.ar    1  UNL1       -0.0159
     21 C           9.8622   -1.1754    0.0000 C.ar    1  UNL1        0.1585
     22 C           2.0000    0.2971    0.0000 C.3     1  UNL1        0.0788
     23 C           8.1301   -3.1754    0.0000 C.3     1  UNL1        0.0790
     24 H           7.8010    1.6346    0.0000 H       1  UNL1        0.0693
     25 H           4.6453   -0.8300    0.0000 H       1  UNL1        0.0691
     26 H           7.5932   -1.4854    0.0000 H       1  UNL1        0.0662
     27 H           3.1963    1.6575    0.0000 H       1  UNL1        0.0691
     28 H           8.9962    0.9446    0.0000 H       1  UNL1        0.0626
     29 H          10.3991    0.1346    0.0000 H       1  UNL1        0.0655
     30 H           4.1164    3.1754    0.0000 H       1  UNL1        0.2922
     31 H           2.3079    0.8352    0.0000 H       1  UNL1        0.0660
     32 H           1.4619    0.6050    0.0000 H       1  UNL1        0.0660
     33 H           1.6921   -0.2410    0.0000 H       1  UNL1        0.0660
     34 H          11.2651   -1.3654    0.0000 H       1  UNL1        0.2923
     35 H           7.8201   -2.6385    0.0000 H       1  UNL1        0.0660
     36 H           7.5932   -3.4854    0.0000 H       1  UNL1        0.0660
     37 H           8.4401   -3.7123    0.0000 H       1  UNL1        0.0660
@<TRIPOS>BOND
     1     1     8   ar
     2     1     9   ar
     3     2    15    1
     4     2    22    1
     5     3    13    1
     6     3    30    1
     7     4    19    1
     8     4    23    1
     9     5    11    2
    10     6    21    1
    11     6    34    1
    12     7     8   ar
    13     7    11   ar
    14     7    13   ar
    15     8    14   ar
    16     9    10    1
    17     9    12   ar
    18    10    17   ar
    19    10    18   ar
    20    11    12   ar
    21    12    24    1
    22    13    16   ar
    23    14    15   ar
    24    14    25    1
    25    15    16   ar
    26    16    27    1
    27    17    19   ar
    28    17    26    1
    29    18    20   ar
    30    18    28    1
    31    19    21   ar
    32    20    21   ar
    33    20    29    1
    34    22    31    1
    35    22    32    1
    36    22    33    1
    37    23    35    1
    38    23    36    1
    39    23    37    1
