@<TRIPOS>MOLECULE
IMPHY006718
 16 16 0 0 0
SMALL
GASTEIGER

@<TRIPOS>ATOM
      1 O           4.5981   -0.8450    0.0000 O.2     1  UNL1       -0.4606
      2 O           3.7320    1.6550    0.0000 O.3     1  UNL1       -0.5009
      3 O           2.0000   -1.3450    0.0000 O.3     1  UNL1       -0.5011
      4 O           2.0000    0.6550    0.0000 O.2     1  UNL1       -0.2799
      5 C           4.5981    0.1550    0.0000 C.ar    1  UNL1        0.1470
      6 C           3.7320    0.6550    0.0000 C.ar    1  UNL1        0.2060
      7 C           2.8660    0.1550    0.0000 C.ar    1  UNL1        0.2674
      8 C           2.8660   -0.8450    0.0000 C.ar    1  UNL1        0.2030
      9 C           5.4641    0.6550    0.0000 C.3     1  UNL1       -0.0026
     10 C           3.7320   -1.3450    0.0000 C.ar    1  UNL1        0.1374
     11 H           5.7741    0.1181    0.0000 H       1  UNL1        0.0309
     12 H           6.0010    0.9650    0.0000 H       1  UNL1        0.0309
     13 H           5.1541    1.1919    0.0000 H       1  UNL1        0.0309
     14 H           3.7320   -1.9650    0.0000 H       1  UNL1        0.1069
     15 H           4.2690    1.9650    0.0000 H       1  UNL1        0.2924
     16 H           2.0000   -1.9650    0.0000 H       1  UNL1        0.2924
@<TRIPOS>BOND
     1     1     5   ar
     2     1    10   ar
     3     2     6    1
     4     2    15    1
     5     3     8    1
     6     3    16    1
     7     4     7    2
     8     5     6   ar
     9     5     9    1
    10     6     7   ar
    11     7     8   ar
    12     8    10   ar
    13     9    11    1
    14     9    12    1
    15     9    13    1
    16    10    14    1
