@<TRIPOS>MOLECULE
IMPHY005745
 79 83 0 0 0
SMALL
GASTEIGER

@<TRIPOS>ATOM
      1 O           2.0000   -2.5933    0.0000 O.2     1  UNL1       -0.2968
      2 C           6.5271   -1.0410    0.0000 C.3     1  UNL1       -0.0228
      3 C           7.3931   -0.5410    0.0000 C.3     1  UNL1       -0.0199
      4 C           5.6610   -0.5410    0.0000 C.3     1  UNL1       -0.0294
      5 C           4.7510   -1.0478    0.0000 C.3     1  UNL1       -0.0246
      6 C           7.3931    0.4590    0.0000 C.3     1  UNL1       -0.0135
      7 C           4.7430   -2.0894    0.0000 C.3     1  UNL1       -0.0235
      8 C           6.5431   -2.0825    0.0000 C.3     1  UNL1       -0.0465
      9 C           5.6610    0.4590    0.0000 C.3     1  UNL1       -0.0486
     10 C           5.6451   -2.6102    0.0000 C.3     1  UNL1       -0.0483
     11 C           6.5271    0.9590    0.0000 C.3     1  UNL1       -0.0457
     12 C           8.2870   -1.0756    0.0000 C.3     1  UNL1       -0.0458
     13 C           9.1931    0.4799    0.0000 C.3     1  UNL1       -0.0107
     14 C           8.2870    0.9937    0.0000 C.2     1  UNL1       -0.0634
     15 C           3.8076   -2.6391    0.0000 C.3     1  UNL1        0.0267
     16 C           3.8242   -0.4837    0.0000 C.3     1  UNL1       -0.0404
     17 C           7.1698   -1.8070    0.0000 C.3     1  UNL1       -0.0588
     18 C           9.1931   -0.5618    0.0000 C.3     1  UNL1       -0.0434
     19 C           7.7352   -1.4806    0.0000 C.3     1  UNL1       -0.0585
     20 C           4.7587   -0.0478    0.0000 C.3     1  UNL1       -0.0590
     21 C           2.8763   -1.0117    0.0000 C.3     1  UNL1        0.0069
     22 C          10.1369    1.0151    0.0000 C.3     1  UNL1       -0.0431
     23 C           2.8680   -2.0966    0.0000 C.2     1  UNL1        0.1392
     24 C           8.2619    2.0784    0.0000 C.2     1  UNL1       -0.0783
     25 C           9.1931    2.6353    0.0000 C.3     1  UNL1       -0.0166
     26 C          10.0629   -0.0135    0.0000 C.3     1  UNL1       -0.0558
     27 C           3.3109   -3.5071    0.0000 C.3     1  UNL1       -0.0528
     28 C           4.3109   -3.5032    0.0000 C.3     1  UNL1       -0.0528
     29 C          10.1369    2.1001    0.0000 C.3     1  UNL1       -0.0436
     30 C           9.6830    3.5071    0.0000 C.3     1  UNL1       -0.0563
     31 C           8.6831    3.4955    0.0000 C.3     1  UNL1       -0.0563
     32 H           6.3972   -0.1160    0.0000 H       1  UNL1        0.0312
     33 H           7.3865    1.3090    0.0000 H       1  UNL1        0.0351
     34 H           4.7463   -2.9394    0.0000 H       1  UNL1        0.0315
     35 H           6.7612   -2.6629    0.0000 H       1  UNL1        0.0271
     36 H           7.1523   -1.9670    0.0000 H       1  UNL1        0.0271
     37 H           5.4490    1.0416    0.0000 H       1  UNL1        0.0268
     38 H           5.0504    0.3514    0.0000 H       1  UNL1        0.0268
     39 H           5.2478   -3.0862    0.0000 H       1  UNL1        0.0269
     40 H           6.0460   -3.0831    0.0000 H       1  UNL1        0.0269
     41 H           6.9256    1.4340    0.0000 H       1  UNL1        0.0271
     42 H           6.1285    1.4340    0.0000 H       1  UNL1        0.0271
     43 H           7.8824   -1.5454    0.0000 H       1  UNL1        0.0271
     44 H           8.6806   -1.5546    0.0000 H       1  UNL1        0.0271
     45 H           4.2324   -0.0171    0.0000 H       1  UNL1        0.0275
     46 H           3.4343   -0.0017    0.0000 H       1  UNL1        0.0275
     47 H           6.6949   -2.2055    0.0000 H       1  UNL1        0.0235
     48 H           7.5684   -2.2820    0.0000 H       1  UNL1        0.0235
     49 H           7.6448   -1.4085    0.0000 H       1  UNL1        0.0235
     50 H           9.4022   -1.1455    0.0000 H       1  UNL1        0.0274
     51 H           9.8040   -0.4557    0.0000 H       1  UNL1        0.0274
     52 H           7.1526   -1.6927    0.0000 H       1  UNL1        0.0235
     53 H           7.9473   -2.0632    0.0000 H       1  UNL1        0.0235
     54 H           8.3178   -1.2685    0.0000 H       1  UNL1        0.0235
     55 H           5.3787   -0.0526    0.0000 H       1  UNL1        0.0235
     56 H           4.7635    0.5721    0.0000 H       1  UNL1        0.0235
     57 H           4.1388   -0.0431    0.0000 H       1  UNL1        0.0235
     58 H           2.6718   -0.4264    0.0000 H       1  UNL1        0.0342
     59 H           2.2647   -1.1131    0.0000 H       1  UNL1        0.0342
     60 H          10.3459    0.4314    0.0000 H       1  UNL1        0.0274
     61 H          10.7477    1.1212    0.0000 H       1  UNL1        0.0274
     62 H           7.7191    2.3780    0.0000 H       1  UNL1        0.0577
     63 H           9.7571   -0.5528    0.0000 H       1  UNL1        0.0238
     64 H          10.6023   -0.3193    0.0000 H       1  UNL1        0.0238
     65 H          10.3688    0.5259    0.0000 H       1  UNL1        0.0238
     66 H           2.7728   -3.1992    0.0000 H       1  UNL1        0.0239
     67 H           3.0030   -4.0452    0.0000 H       1  UNL1        0.0239
     68 H           3.8490   -3.8150    0.0000 H       1  UNL1        0.0239
     69 H           3.7752   -3.8153    0.0000 H       1  UNL1        0.0239
     70 H           4.6230   -4.0390    0.0000 H       1  UNL1        0.0239
     71 H           4.8466   -3.1912    0.0000 H       1  UNL1        0.0239
     72 H          10.7477    1.9940    0.0000 H       1  UNL1        0.0274
     73 H          10.3459    2.6838    0.0000 H       1  UNL1        0.0274
     74 H           9.2164    3.8117    0.0000 H       1  UNL1        0.0238
     75 H           8.3669    4.0288    0.0000 H       1  UNL1        0.0238
     76 H           8.1498    3.1793    0.0000 H       1  UNL1        0.0238
     77 H          10.2235    3.2033    0.0000 H       1  UNL1        0.0238
     78 H           9.9868    4.0476    0.0000 H       1  UNL1        0.0238
     79 H           9.1426    3.8108    0.0000 H       1  UNL1        0.0238
@<TRIPOS>BOND
     1     1    23    2
     2     2     3    1
     3     2     4    1
     4     2     8    1
     5     2    17    1
     6     3     6    1
     7     3    12    1
     8     3    19    1
     9     4     5    1
    10     4     9    1
    11     4    32    1
    12     5     7    1
    13     5    16    1
    14     5    20    1
    15     6    11    1
    16     6    14    1
    17     6    33    1
    18     7    10    1
    19     7    15    1
    20     7    34    1
    21     8    10    1
    22     8    35    1
    23     8    36    1
    24     9    11    1
    25     9    37    1
    26     9    38    1
    27    10    39    1
    28    10    40    1
    29    11    41    1
    30    11    42    1
    31    12    18    1
    32    12    43    1
    33    12    44    1
    34    13    14    1
    35    13    18    1
    36    13    22    1
    37    13    26    1
    38    14    24    2
    39    15    23    1
    40    15    27    1
    41    15    28    1
    42    16    21    1
    43    16    45    1
    44    16    46    1
    45    17    47    1
    46    17    48    1
    47    17    49    1
    48    18    50    1
    49    18    51    1
    50    19    52    1
    51    19    53    1
    52    19    54    1
    53    20    55    1
    54    20    56    1
    55    20    57    1
    56    21    23    1
    57    21    58    1
    58    21    59    1
    59    22    29    1
    60    22    60    1
    61    22    61    1
    62    24    25    1
    63    24    62    1
    64    25    29    1
    65    25    30    1
    66    25    31    1
    67    26    63    1
    68    26    64    1
    69    26    65    1
    70    27    66    1
    71    27    67    1
    72    27    68    1
    73    28    69    1
    74    28    70    1
    75    28    71    1
    76    29    72    1
    77    29    73    1
    78    30    77    1
    79    30    78    1
    80    30    79    1
    81    31    74    1
    82    31    75    1
    83    31    76    1
