@<TRIPOS>MOLECULE
IMPHY007432
 51 54 0 0 0
SMALL
GASTEIGER

@<TRIPOS>ATOM
      1 O           3.7782    1.4285    0.0000 O.3     1  UNL1       -0.4908
      2 O           5.5442    2.4663    0.0000 O.3     1  UNL1       -0.4914
      3 O           2.9176    0.9316    0.0000 O.3     1  UNL1       -0.4945
      4 N           6.3903   -2.0999    0.0000 N.4     1  UNL1        0.2449
      5 C           5.5321   -1.6030    0.0000 C.3     1  UNL1        0.0113
      6 C           7.2558   -1.6157    0.0000 C.3     1  UNL1       -0.0259
      7 C           5.5321   -0.6030    0.0000 C.ar    1  UNL1        0.0154
      8 C           4.6660   -2.1030    0.0000 C.3     1  UNL1        0.0207
      9 C           7.2814   -0.6244    0.0000 C.3     1  UNL1        0.0134
     10 C           6.4421   -0.0961    0.0000 C.ar    1  UNL1       -0.0296
     11 C           6.8838   -2.9696    0.0000 C.3     1  UNL1       -0.0409
     12 C           5.8839   -2.9622    0.0000 C.3     1  UNL1       -0.0409
     13 C           4.6660   -0.1030    0.0000 C.ar    1  UNL1        0.0399
     14 C           3.8000   -1.6030    0.0000 C.ar    1  UNL1       -0.0304
     15 C           3.8000   -0.6030    0.0000 C.ar    1  UNL1        0.0312
     16 C           6.4501    0.9455    0.0000 C.ar    1  UNL1       -0.0124
     17 C           4.6500    0.9385    0.0000 C.ar    1  UNL1        0.1697
     18 C           5.5480    1.4663    0.0000 C.ar    1  UNL1        0.1624
     19 C           2.9061   -2.1376    0.0000 C.ar    1  UNL1       -0.0576
     20 C           2.9061   -0.0683    0.0000 C.ar    1  UNL1        0.1282
     21 C           2.0000   -1.6238    0.0000 C.ar    1  UNL1       -0.0580
     22 C           2.0000   -0.5822    0.0000 C.ar    1  UNL1       -0.0193
     23 C           3.7667    2.4284    0.0000 C.3     1  UNL1        0.0790
     24 C           6.4082    2.9696    0.0000 C.3     1  UNL1        0.0790
     25 C           2.0574    1.4416    0.0000 C.3     1  UNL1        0.0788
     26 H           5.5315   -2.4530    0.0000 H       1  UNL1        0.0908
     27 H           7.4575   -2.2020    0.0000 H       1  UNL1        0.0818
     28 H           7.8685   -1.5214    0.0000 H       1  UNL1        0.0818
     29 H           4.2675   -2.5779    0.0000 H       1  UNL1        0.0372
     30 H           5.0646   -2.5779    0.0000 H       1  UNL1        0.0372
     31 H           7.8885   -0.7502    0.0000 H       1  UNL1        0.0365
     32 H           7.5131   -0.0493    0.0000 H       1  UNL1        0.0365
     33 H           6.3446   -3.2756    0.0000 H       1  UNL1        0.0778
     34 H           7.1899   -3.5088    0.0000 H       1  UNL1        0.0778
     35 H           5.3493   -2.6482    0.0000 H       1  UNL1        0.0778
     36 H           5.5699   -3.4968    0.0000 H       1  UNL1        0.0778
     37 H           6.4185   -3.2762    0.0000 H       1  UNL1        0.0778
     38 H           7.4231   -2.6636    0.0000 H       1  UNL1        0.0778
     39 H           6.9882    1.2534    0.0000 H       1  UNL1        0.0658
     40 H           2.9132   -2.7576    0.0000 H       1  UNL1        0.0621
     41 H           1.4643   -1.9359    0.0000 H       1  UNL1        0.0619
     42 H           1.4643   -0.2701    0.0000 H       1  UNL1        0.0654
     43 H           4.3866    2.4356    0.0000 H       1  UNL1        0.0660
     44 H           3.7595    3.0484    0.0000 H       1  UNL1        0.0660
     45 H           3.1467    2.4212    0.0000 H       1  UNL1        0.0660
     46 H           6.7203    2.4339    0.0000 H       1  UNL1        0.0660
     47 H           6.9440    3.2817    0.0000 H       1  UNL1        0.0660
     48 H           6.0962    3.5054    0.0000 H       1  UNL1        0.0660
     49 H           2.3736    1.9749    0.0000 H       1  UNL1        0.0660
     50 H           1.5241    1.7578    0.0000 H       1  UNL1        0.0660
     51 H           1.7413    0.9083    0.0000 H       1  UNL1        0.0660
@<TRIPOS>UNITY_ATOM_ATTR
4 1
charge 1
@<TRIPOS>BOND
     1     1    17    1
     2     1    23    1
     3     2    18    1
     4     2    24    1
     5     3    20    1
     6     3    25    1
     7     4     5    1
     8     4     6    1
     9     4    11    1
    10     4    12    1
    11     5     7    1
    12     5     8    1
    13     5    26    1
    14     6     9    1
    15     6    27    1
    16     6    28    1
    17     7    10   ar
    18     7    13   ar
    19     8    14    1
    20     8    29    1
    21     8    30    1
    22     9    10    1
    23     9    31    1
    24     9    32    1
    25    10    16   ar
    26    11    33    1
    27    11    34    1
    28    11    38    1
    29    12    35    1
    30    12    36    1
    31    12    37    1
    32    13    15    1
    33    13    17   ar
    34    14    15   ar
    35    14    19   ar
    36    15    20   ar
    37    16    18   ar
    38    16    39    1
    39    17    18   ar
    40    19    21   ar
    41    19    40    1
    42    20    22   ar
    43    21    22   ar
    44    21    41    1
    45    22    42    1
    46    23    43    1
    47    23    44    1
    48    23    45    1
    49    24    46    1
    50    24    47    1
    51    24    48    1
    52    25    49    1
    53    25    50    1
    54    25    51    1
