@<TRIPOS>MOLECULE
IMPHY001186
 80 81 0 0 0
SMALL
GASTEIGER

@<TRIPOS>ATOM
      1 O           2.8660    1.0110    0.0000 O.3     1  UNL1       -0.4862
      2 O           6.9641    0.6449    0.0000 O.2     1  UNL1       -0.2741
      3 O           3.7226    0.4943    0.0000 O.2     1  UNL1       -0.2736
      4 O           3.7118   -2.4522    0.0000 O.2     1  UNL1       -0.2734
      5 N           5.4641    1.5110    0.0000 N.am    1  UNL1       -0.2997
      6 N           6.4641    3.2430    0.0000 N.3     1  UNL1       -0.2974
      7 N           5.4641   -0.4890    0.0000 N.am    1  UNL1       -0.3023
      8 N           4.5981   -2.9890    0.0000 N.am    1  UNL1       -0.2904
      9 C           4.5981    1.0110    0.0000 C.3     1  UNL1        0.1368
     10 C           3.7320    1.5110    0.0000 C.3     1  UNL1        0.1292
     11 C           6.9641    2.3770    0.0000 C.3     1  UNL1        0.0893
     12 C           7.9641    2.3770    0.0000 C.3     1  UNL1       -0.0200
     13 C           3.7320    2.5110    0.0000 C.3     1  UNL1       -0.0073
     14 C           6.4641    1.5110    0.0000 C.2     1  UNL1        0.2312
     15 C           8.4641    3.2430    0.0000 C.3     1  UNL1       -0.0514
     16 C           4.5981    0.0110    0.0000 C.2     1  UNL1        0.2376
     17 C           5.4641   -1.4890    0.0000 C.3     1  UNL1        0.0999
     18 C           8.4641    1.5110    0.0000 C.3     1  UNL1       -0.0605
     19 C           6.3301   -1.9890    0.0000 C.3     1  UNL1       -0.0236
     20 C           2.8660    3.0110    0.0000 C.3     1  UNL1       -0.0592
     21 C           4.5981    3.0110    0.0000 C.3     1  UNL1       -0.0592
     22 C           7.1962   -1.4890    0.0000 C.3     1  UNL1       -0.0446
     23 C           9.4641    3.2430    0.0000 C.3     1  UNL1       -0.0650
     24 C           6.9641    4.1090    0.0000 C.3     1  UNL1       -0.0123
     25 C           5.4641    3.2430    0.0000 C.3     1  UNL1       -0.0123
     26 C           4.5981   -1.9890    0.0000 C.2     1  UNL1        0.2371
     27 C           2.8660    0.0110    0.0000 C.ar    1  UNL1        0.1211
     28 C           8.0622   -1.9890    0.0000 C.3     1  UNL1       -0.0626
     29 C           7.1962   -0.4890    0.0000 C.3     1  UNL1       -0.0626
     30 C           3.7320   -0.4890    0.0000 C.ar    1  UNL1       -0.0194
     31 C           2.0000   -0.4890    0.0000 C.ar    1  UNL1       -0.0194
     32 C           2.8660   -1.9890    0.0000 C.ar    1  UNL1       -0.0236
     33 C           3.7320   -1.4890    0.0000 C.ar    1  UNL1       -0.0511
     34 C           2.0000   -1.4890    0.0000 C.ar    1  UNL1       -0.0511
     35 C           3.7320   -3.4890    0.0000 C.2     1  UNL1       -0.0031
     36 C           2.8660   -2.9890    0.0000 C.2     1  UNL1       -0.0407
     37 H           5.1350    0.7010    0.0000 H       1  UNL1        0.0632
     38 H           3.1951    1.8210    0.0000 H       1  UNL1        0.0759
     39 H           6.3441    2.3770    0.0000 H       1  UNL1        0.0561
     40 H           8.5841    2.3770    0.0000 H       1  UNL1        0.0318
     41 H           4.2690    2.2010    0.0000 H       1  UNL1        0.0332
     42 H           5.4641    2.1310    0.0000 H       1  UNL1        0.1496
     43 H           8.5718    3.8536    0.0000 H       1  UNL1        0.0266
     44 H           7.8815    3.4551    0.0000 H       1  UNL1        0.0266
     45 H           6.0010   -1.1790    0.0000 H       1  UNL1        0.0595
     46 H           7.9272    1.2010    0.0000 H       1  UNL1        0.0233
     47 H           8.7741    0.9740    0.0000 H       1  UNL1        0.0233
     48 H           9.0010    1.8210    0.0000 H       1  UNL1        0.0233
     49 H           5.9316   -2.4640    0.0000 H       1  UNL1        0.0290
     50 H           6.7287   -2.4640    0.0000 H       1  UNL1        0.0290
     51 H           3.1760    3.5479    0.0000 H       1  UNL1        0.0233
     52 H           2.3291    3.3210    0.0000 H       1  UNL1        0.0233
     53 H           2.5560    2.4740    0.0000 H       1  UNL1        0.0233
     54 H           4.9081    2.4740    0.0000 H       1  UNL1        0.0233
     55 H           5.1350    3.3210    0.0000 H       1  UNL1        0.0233
     56 H           4.2881    3.5479    0.0000 H       1  UNL1        0.0233
     57 H           6.0010   -0.1790    0.0000 H       1  UNL1        0.1495
     58 H           6.6592   -1.1790    0.0000 H       1  UNL1        0.0296
     59 H           9.4641    2.6230    0.0000 H       1  UNL1        0.0230
     60 H          10.0841    3.2430    0.0000 H       1  UNL1        0.0230
     61 H           9.4641    3.8630    0.0000 H       1  UNL1        0.0230
     62 H           7.5010    3.7990    0.0000 H       1  UNL1        0.0391
     63 H           7.2741    4.6460    0.0000 H       1  UNL1        0.0391
     64 H           6.4272    4.4190    0.0000 H       1  UNL1        0.0391
     65 H           5.4641    3.8630    0.0000 H       1  UNL1        0.0391
     66 H           4.8441    3.2430    0.0000 H       1  UNL1        0.0391
     67 H           5.4641    2.6230    0.0000 H       1  UNL1        0.0391
     68 H           7.7522   -2.5260    0.0000 H       1  UNL1        0.0232
     69 H           8.5991   -2.2990    0.0000 H       1  UNL1        0.0232
     70 H           8.3722   -1.4521    0.0000 H       1  UNL1        0.0232
     71 H           7.8162   -0.4890    0.0000 H       1  UNL1        0.0232
     72 H           7.1962    0.1310    0.0000 H       1  UNL1        0.0232
     73 H           6.5762   -0.4890    0.0000 H       1  UNL1        0.0232
     74 H           5.1350   -3.2990    0.0000 H       1  UNL1        0.1543
     75 H           4.2690   -0.1790    0.0000 H       1  UNL1        0.0654
     76 H           1.4631   -0.1790    0.0000 H       1  UNL1        0.0654
     77 H           4.2690   -1.7990    0.0000 H       1  UNL1        0.0625
     78 H           1.4631   -1.7990    0.0000 H       1  UNL1        0.0625
     79 H           3.7320   -4.1090    0.0000 H       1  UNL1        0.0782
     80 H           2.3291   -3.2990    0.0000 H       1  UNL1        0.0636
@<TRIPOS>BOND
     1     1    10    1
     2     1    27    1
     3     2    14    2
     4     3    16    2
     5     4    26    2
     6     9     5    1
     7     5    14   am
     8     5    42    1
     9    11     6    1
    10     6    24    1
    11     6    25    1
    12     7    16   am
    13     7    17    1
    14     7    57    1
    15     8    26   am
    16     8    35    1
    17     8    74    1
    18     9    10    1
    19     9    16    1
    20     9    37    1
    21    10    13    1
    22    10    38    1
    23    11    12    1
    24    11    14    1
    25    11    39    1
    26    12    15    1
    27    12    18    1
    28    12    40    1
    29    13    20    1
    30    13    21    1
    31    13    41    1
    32    15    23    1
    33    15    43    1
    34    15    44    1
    35    17    19    1
    36    17    26    1
    37    17    45    1
    38    18    46    1
    39    18    47    1
    40    18    48    1
    41    19    22    1
    42    19    49    1
    43    19    50    1
    44    20    51    1
    45    20    52    1
    46    20    53    1
    47    21    54    1
    48    21    55    1
    49    21    56    1
    50    22    28    1
    51    22    29    1
    52    22    58    1
    53    23    59    1
    54    23    60    1
    55    23    61    1
    56    24    62    1
    57    24    63    1
    58    24    64    1
    59    25    65    1
    60    25    66    1
    61    25    67    1
    62    27    30   ar
    63    27    31   ar
    64    28    68    1
    65    28    69    1
    66    28    70    1
    67    29    71    1
    68    29    72    1
    69    29    73    1
    70    30    33   ar
    71    30    75    1
    72    31    34   ar
    73    31    76    1
    74    32    33   ar
    75    32    34   ar
    76    32    36    1
    77    33    77    1
    78    34    78    1
    79    35    36    2
    80    35    79    1
    81    36    80    1
