@<TRIPOS>MOLECULE
IMPHY012189
 25 24 0 0 0
SMALL
GASTEIGER

@<TRIPOS>ATOM
      1 O           2.5369    0.3450    0.0000 O.3     1  UNL1       -0.4806
      2 O           3.4030   -1.1550    0.0000 O.2     1  UNL1       -0.2510
      3 C           6.0010    0.3450    0.0000 C.3     1  UNL1       -0.0525
      4 C           6.8671   -0.1550    0.0000 C.3     1  UNL1       -0.0522
      5 C           5.1350   -0.1550    0.0000 C.3     1  UNL1       -0.0430
      6 C           7.7331    0.3450    0.0000 C.3     1  UNL1       -0.0422
      7 C           4.2690    0.3450    0.0000 C.3     1  UNL1        0.0448
      8 C           8.5991   -0.1550    0.0000 C.3     1  UNL1        0.0089
      9 C           3.4030   -0.1550    0.0000 C.2     1  UNL1        0.3047
     10 C           9.4651    0.3450    0.0000 C.1     1  UNL1       -0.1056
     11 C          10.3312    0.8450    0.0000 C.1     1  UNL1       -0.1192
     12 H           6.3996    0.8199    0.0000 H       1  UNL1        0.0265
     13 H           5.6025    0.8199    0.0000 H       1  UNL1        0.0265
     14 H           6.4685   -0.6299    0.0000 H       1  UNL1        0.0266
     15 H           7.2656   -0.6299    0.0000 H       1  UNL1        0.0266
     16 H           4.7365   -0.6299    0.0000 H       1  UNL1        0.0270
     17 H           5.5335   -0.6299    0.0000 H       1  UNL1        0.0270
     18 H           8.1316    0.8199    0.0000 H       1  UNL1        0.0274
     19 H           7.3346    0.8199    0.0000 H       1  UNL1        0.0274
     20 H           4.6675    0.8199    0.0000 H       1  UNL1        0.0377
     21 H           3.8705    0.8199    0.0000 H       1  UNL1        0.0377
     22 H           8.2006   -0.6299    0.0000 H       1  UNL1        0.0397
     23 H           8.9976   -0.6299    0.0000 H       1  UNL1        0.0397
     24 H           2.0000    0.0350    0.0000 H       1  UNL1        0.2951
     25 H          10.8681    1.1550    0.0000 H       1  UNL1        0.1228
@<TRIPOS>BOND
     1     1     9    1
     2     1    24    1
     3     2     9    2
     4     3     4    1
     5     3     5    1
     6     3    12    1
     7     3    13    1
     8     4     6    1
     9     4    14    1
    10     4    15    1
    11     5     7    1
    12     5    16    1
    13     5    17    1
    14     6     8    1
    15     6    18    1
    16     6    19    1
    17     7     9    1
    18     7    20    1
    19     7    21    1
    20     8    10    1
    21     8    22    1
    22     8    23    1
    23    10    11    3
    24    11    25    1
