@<TRIPOS>MOLECULE
IMPHY017497
 14 14 0 0 0
SMALL
GASTEIGER

@<TRIPOS>ATOM
      1 S           2.8660   -1.0000    0.0000 S.3     1  UNL1       -0.1564
      2 C           2.0000    0.5000    0.0000 C.3     1  UNL1       -0.0257
      3 C           2.0000   -0.5000    0.0000 C.3     1  UNL1       -0.0026
      4 C           3.7320   -0.5000    0.0000 C.3     1  UNL1        0.0118
      5 C           2.8660    1.0000    0.0000 C.2     1  UNL1       -0.0864
      6 C           3.7320    0.5000    0.0000 C.2     1  UNL1       -0.0781
      7 H           1.7880    1.0826    0.0000 H       1  UNL1        0.0315
      8 H           1.3894    0.3923    0.0000 H       1  UNL1        0.0315
      9 H           1.3894   -0.3923    0.0000 H       1  UNL1        0.0379
     10 H           1.7880   -1.0826    0.0000 H       1  UNL1        0.0379
     11 H           3.9441   -1.0826    0.0000 H       1  UNL1        0.0419
     12 H           4.3426   -0.3923    0.0000 H       1  UNL1        0.0419
     13 H           2.8660    1.6200    0.0000 H       1  UNL1        0.0569
     14 H           4.2690    0.8100    0.0000 H       1  UNL1        0.0577
@<TRIPOS>BOND
     1     1     3    1
     2     1     4    1
     3     2     3    1
     4     2     5    1
     5     2     7    1
     6     2     8    1
     7     3     9    1
     8     3    10    1
     9     4     6    1
    10     4    11    1
    11     4    12    1
    12     5     6    2
    13     5    13    1
    14     6    14    1
