@<TRIPOS>MOLECULE
IMPHY005836
 24 24 0 0 0
SMALL
GASTEIGER

@<TRIPOS>ATOM
      1 O           2.5369   -2.1550    0.0000 O.3     1  UNL1       -0.5033
      2 O           4.2690   -3.1550    0.0000 O.3     1  UNL1       -0.5033
      3 O           6.0010    2.8450    0.0000 O.3     1  UNL1       -0.4773
      4 O           4.2690    2.8450    0.0000 O.2     1  UNL1       -0.2455
      5 C           4.2690   -0.1550    0.0000 C.ar    1  UNL1       -0.0209
      6 C           4.2690    0.8450    0.0000 C.2     1  UNL1       -0.0448
      7 C           3.4030   -0.6550    0.0000 C.ar    1  UNL1       -0.0094
      8 C           5.1350   -0.6550    0.0000 C.ar    1  UNL1       -0.0509
      9 C           3.4030   -1.6550    0.0000 C.ar    1  UNL1        0.1588
     10 C           5.1350    1.3450    0.0000 C.2     1  UNL1        0.0339
     11 C           4.2690   -2.1550    0.0000 C.ar    1  UNL1        0.1582
     12 C           5.1350   -1.6550    0.0000 C.ar    1  UNL1       -0.0160
     13 C           6.0010    0.8450    0.0000 C.3     1  UNL1       -0.0329
     14 C           5.1350    2.3450    0.0000 C.2     1  UNL1        0.3325
     15 H           3.7320    1.1550    0.0000 H       1  UNL1        0.0628
     16 H           2.8660   -0.3450    0.0000 H       1  UNL1        0.0661
     17 H           5.6720   -0.3450    0.0000 H       1  UNL1        0.0625
     18 H           5.6720   -1.9650    0.0000 H       1  UNL1        0.0655
     19 H           5.6910    0.3081    0.0000 H       1  UNL1        0.0280
     20 H           6.5380    0.5350    0.0000 H       1  UNL1        0.0280
     21 H           6.3110    1.3819    0.0000 H       1  UNL1        0.0280
     22 H           2.0000   -1.8450    0.0000 H       1  UNL1        0.2923
     23 H           4.8059   -3.4650    0.0000 H       1  UNL1        0.2923
     24 H           6.0010    3.4650    0.0000 H       1  UNL1        0.2954
@<TRIPOS>BOND
     1     1     9    1
     2     1    22    1
     3     2    11    1
     4     2    23    1
     5     3    14    1
     6     3    24    1
     7     4    14    2
     8     5     6    1
     9     5     7   ar
    10     5     8   ar
    11     6    10    2
    12     6    15    1
    13     7     9   ar
    14     7    16    1
    15     8    12   ar
    16     8    17    1
    17     9    11   ar
    18    10    13    1
    19    10    14    1
    20    11    12   ar
    21    12    18    1
    22    13    19    1
    23    13    20    1
    24    13    21    1
