@<TRIPOS>MOLECULE
IMPHY017548
 29 29 0 0 0
SMALL
GASTEIGER

@<TRIPOS>ATOM
      1 O           2.5369   -3.2500    0.0000 O.2     1  UNL1       -0.3007
      2 C           3.4030    2.2500    0.0000 C.3     1  UNL1       -0.0127
      3 C           3.4030    1.2500    0.0000 C.ar    1  UNL1       -0.0420
      4 C           3.4030    3.2500    0.0000 C.3     1  UNL1       -0.0560
      5 C           4.4030    2.2500    0.0000 C.3     1  UNL1       -0.0560
      6 C           2.4030    2.2500    0.0000 C.3     1  UNL1       -0.0560
      7 C           2.5369    0.7500    0.0000 C.ar    1  UNL1       -0.0578
      8 C           4.2690    0.7500    0.0000 C.ar    1  UNL1       -0.0578
      9 C           3.4030   -0.7500    0.0000 C.ar    1  UNL1       -0.0405
     10 C           2.5369   -0.2500    0.0000 C.ar    1  UNL1       -0.0579
     11 C           4.2690   -0.2500    0.0000 C.ar    1  UNL1       -0.0579
     12 C           3.4030   -1.7500    0.0000 C.3     1  UNL1        0.0280
     13 C           2.5369   -2.2500    0.0000 C.2     1  UNL1        0.1246
     14 H           4.0230    3.2500    0.0000 H       1  UNL1        0.0238
     15 H           3.4030    3.8700    0.0000 H       1  UNL1        0.0238
     16 H           2.7830    3.2500    0.0000 H       1  UNL1        0.0238
     17 H           4.4030    1.6300    0.0000 H       1  UNL1        0.0238
     18 H           5.0230    2.2500    0.0000 H       1  UNL1        0.0238
     19 H           4.4030    2.8700    0.0000 H       1  UNL1        0.0238
     20 H           2.4030    2.8700    0.0000 H       1  UNL1        0.0238
     21 H           1.7830    2.2500    0.0000 H       1  UNL1        0.0238
     22 H           2.4030    1.6300    0.0000 H       1  UNL1        0.0238
     23 H           2.0000    1.0600    0.0000 H       1  UNL1        0.0621
     24 H           4.8059    1.0600    0.0000 H       1  UNL1        0.0621
     25 H           2.0000   -0.5600    0.0000 H       1  UNL1        0.0620
     26 H           4.8059   -0.5600    0.0000 H       1  UNL1        0.0620
     27 H           3.6150   -2.3326    0.0000 H       1  UNL1        0.0387
     28 H           4.0135   -1.6423    0.0000 H       1  UNL1        0.0387
     29 H           2.0000   -1.9400    0.0000 H       1  UNL1        0.1030
@<TRIPOS>BOND
     1     1    13    2
     2     2     3    1
     3     2     4    1
     4     2     5    1
     5     2     6    1
     6     3     7   ar
     7     3     8   ar
     8     4    14    1
     9     4    15    1
    10     4    16    1
    11     5    17    1
    12     5    18    1
    13     5    19    1
    14     6    20    1
    15     6    21    1
    16     6    22    1
    17     7    10   ar
    18     7    23    1
    19     8    11   ar
    20     8    24    1
    21     9    10   ar
    22     9    11   ar
    23     9    12    1
    24    10    25    1
    25    11    26    1
    26    12    13    1
    27    12    27    1
    28    12    28    1
    29    13    29    1
