@<TRIPOS>MOLECULE
IMPHY017119
 28 27 0 0 0
SMALL
GASTEIGER

@<TRIPOS>ATOM
      1 C           6.3301   -0.0600    0.0000 C.3     1  UNL1       -0.0494
      2 C           7.1962    0.4400    0.0000 C.3     1  UNL1       -0.0530
      3 C           5.4641    0.4400    0.0000 C.3     1  UNL1       -0.0317
      4 C           8.0622   -0.0600    0.0000 C.3     1  UNL1       -0.0559
      5 C           4.5981   -0.0600    0.0000 C.2     1  UNL1       -0.0726
      6 C           8.9282    0.4400    0.0000 C.3     1  UNL1       -0.0653
      7 C           4.5981   -1.0600    0.0000 C.3     1  UNL1       -0.0435
      8 C           3.7320    0.4400    0.0000 C.2     1  UNL1       -0.0633
      9 C           2.8660   -0.0600    0.0000 C.2     1  UNL1       -0.0689
     10 C           2.0000    0.4400    0.0000 C.2     1  UNL1       -0.0987
     11 H           5.9316   -0.5349    0.0000 H       1  UNL1        0.0268
     12 H           6.7287   -0.5349    0.0000 H       1  UNL1        0.0268
     13 H           7.5947    0.9149    0.0000 H       1  UNL1        0.0265
     14 H           6.7976    0.9149    0.0000 H       1  UNL1        0.0265
     15 H           5.8626    0.9149    0.0000 H       1  UNL1        0.0310
     16 H           5.0656    0.9149    0.0000 H       1  UNL1        0.0310
     17 H           7.6636   -0.5349    0.0000 H       1  UNL1        0.0263
     18 H           8.4607   -0.5349    0.0000 H       1  UNL1        0.0263
     19 H           9.2382   -0.0969    0.0000 H       1  UNL1        0.0230
     20 H           9.4651    0.7500    0.0000 H       1  UNL1        0.0230
     21 H           8.6182    0.9769    0.0000 H       1  UNL1        0.0230
     22 H           3.9781   -1.0600    0.0000 H       1  UNL1        0.0274
     23 H           4.5981   -1.6800    0.0000 H       1  UNL1        0.0274
     24 H           5.2181   -1.0600    0.0000 H       1  UNL1        0.0274
     25 H           3.7320    1.0600    0.0000 H       1  UNL1        0.0617
     26 H           2.8660   -0.6800    0.0000 H       1  UNL1        0.0612
     27 H           2.0000    1.0600    0.0000 H       1  UNL1        0.0535
     28 H           1.4631    0.1300    0.0000 H       1  UNL1        0.0535
@<TRIPOS>BOND
     1     1     2    1
     2     1     3    1
     3     1    11    1
     4     1    12    1
     5     2     4    1
     6     2    13    1
     7     2    14    1
     8     3     5    1
     9     3    15    1
    10     3    16    1
    11     4     6    1
    12     4    17    1
    13     4    18    1
    14     5     7    1
    15     5     8    2
    16     6    19    1
    17     6    20    1
    18     6    21    1
    19     7    22    1
    20     7    23    1
    21     7    24    1
    22     8     9    1
    23     8    25    1
    24     9    10    2
    25     9    26    1
    26    10    27    1
    27    10    28    1
