@<TRIPOS>MOLECULE
IMPHY001733
 77 82 0 0 0
SMALL
GASTEIGER

@<TRIPOS>ATOM
      1 O           8.4638    1.4900    0.0000 O.3     1  UNL1       -0.3549
      2 O           7.0539   -0.2773    0.0000 O.3     1  UNL1       -0.4760
      3 O          11.0516   -0.0453    0.0000 O.2     1  UNL1       -0.2935
      4 O           7.0539   -3.0397    0.0000 O.2     1  UNL1       -0.2866
      5 O           3.9040   -0.1554    0.0000 O.3     1  UNL1       -0.4811
      6 O           5.5276   -3.0397    0.0000 O.3     1  UNL1       -0.5052
      7 C           7.8170   -0.7179    0.0000 C.3     1  UNL1        0.1800
      8 C           8.5801   -0.2773    0.0000 C.3     1  UNL1        0.0360
      9 C           8.6008    0.4864    0.0000 C.3     1  UNL1        0.1753
     10 C           9.2275    0.7409    0.0000 C.3     1  UNL1        0.0723
     11 C           9.3433   -0.7179    0.0000 C.3     1  UNL1       -0.0304
     12 C           9.3433   -1.5991    0.0000 C.3     1  UNL1        0.0399
     13 C           7.8170   -1.5991    0.0000 C.2     1  UNL1        0.0435
     14 C          10.0891   -0.3165    0.0000 C.2     1  UNL1        0.1762
     15 C           8.5801   -2.0397    0.0000 C.2     1  UNL1       -0.0630
     16 C           7.6251    0.7052    0.0000 C.3     1  UNL1        0.0059
     17 C           9.9641    1.4172    0.0000 C.3     1  UNL1       -0.0356
     18 C          10.2274    0.7506    0.0000 C.3     1  UNL1       -0.0356
     19 C           7.0539   -2.0397    0.0000 C.2     1  UNL1        0.1999
     20 C           6.2907   -0.7179    0.0000 C.ar    1  UNL1        0.1433
     21 C           6.2907   -1.5991    0.0000 C.ar    1  UNL1        0.1061
     22 C           7.3267    1.6597    0.0000 C.2     1  UNL1       -0.0820
     23 C           5.5276   -0.2773    0.0000 C.ar    1  UNL1        0.0412
     24 C           5.5276   -2.0397    0.0000 C.ar    1  UNL1        0.1418
     25 C           8.0041    2.3953    0.0000 C.2     1  UNL1       -0.0795
     26 C           4.7644   -0.7179    0.0000 C.ar    1  UNL1        0.1393
     27 C           4.7644   -1.5991    0.0000 C.ar    1  UNL1        0.0591
     28 C           5.5276    0.7227    0.0000 C.3     1  UNL1       -0.0023
     29 C           7.7058    3.3497    0.0000 C.3     1  UNL1       -0.0440
     30 C           8.9799    2.1764    0.0000 C.3     1  UNL1       -0.0440
     31 C           3.9040   -2.1616    0.0000 C.2     1  UNL1       -0.0478
     32 C           2.9999   -0.6446    0.0000 C.3     1  UNL1        0.1235
     33 C           4.6616    1.2227    0.0000 C.2     1  UNL1       -0.0807
     34 C           2.9999   -1.6725    0.0000 C.2     1  UNL1       -0.0408
     35 C           2.0000   -0.6307    0.0000 C.3     1  UNL1       -0.0215
     36 C           2.5120    0.2283    0.0000 C.3     1  UNL1       -0.0215
     37 C           4.6615    2.2227    0.0000 C.2     1  UNL1       -0.0793
     38 C           3.7955    2.7226    0.0000 C.3     1  UNL1       -0.0440
     39 C           5.5276    2.7227    0.0000 C.3     1  UNL1       -0.0440
     40 H           9.1823   -0.1297    0.0000 H       1  UNL1        0.0372
     41 H           9.9538   -0.8256    0.0000 H       1  UNL1        0.0280
     42 H           9.5553   -0.1353    0.0000 H       1  UNL1        0.0280
     43 H           9.9434   -2.2011    0.0000 H       1  UNL1        0.0421
     44 H           8.5801   -2.6597    0.0000 H       1  UNL1        0.0584
     45 H           7.0102    0.6258    0.0000 H       1  UNL1        0.0341
     46 H           7.5965    0.0859    0.0000 H       1  UNL1        0.0341
     47 H          10.2334    0.1307    0.0000 H       1  UNL1        0.0257
     48 H          10.8474    0.7566    0.0000 H       1  UNL1        0.0257
     49 H          10.2214    1.3706    0.0000 H       1  UNL1        0.0257
     50 H          10.3834    0.9605    0.0000 H       1  UNL1        0.0257
     51 H          10.4208    1.8366    0.0000 H       1  UNL1        0.0257
     52 H           9.5448    1.8739    0.0000 H       1  UNL1        0.0257
     53 H           6.7217    1.7953    0.0000 H       1  UNL1        0.0572
     54 H           6.1382    0.6150    0.0000 H       1  UNL1        0.0358
     55 H           5.7396    1.3053    0.0000 H       1  UNL1        0.0358
     56 H           8.8442    1.5715    0.0000 H       1  UNL1        0.0274
     57 H           9.5848    2.0408    0.0000 H       1  UNL1        0.0274
     58 H           9.1156    2.7814    0.0000 H       1  UNL1        0.0274
     59 H           8.2975    3.5347    0.0000 H       1  UNL1        0.0274
     60 H           7.5208    3.9415    0.0000 H       1  UNL1        0.0274
     61 H           7.1140    3.1648    0.0000 H       1  UNL1        0.0274
     62 H           3.9298   -2.7811    0.0000 H       1  UNL1        0.0624
     63 H           4.9906   -3.3497    0.0000 H       1  UNL1        0.2922
     64 H           4.1246    0.9127    0.0000 H       1  UNL1        0.0575
     65 H           2.4673   -1.9899    0.0000 H       1  UNL1        0.0611
     66 H           3.0531    0.5308    0.0000 H       1  UNL1        0.0271
     67 H           2.2094    0.7695    0.0000 H       1  UNL1        0.0271
     68 H           1.9708   -0.0742    0.0000 H       1  UNL1        0.0271
     69 H           2.0086   -0.0108    0.0000 H       1  UNL1        0.0271
     70 H           1.3801   -0.6221    0.0000 H       1  UNL1        0.0271
     71 H           1.9914   -1.2506    0.0000 H       1  UNL1        0.0271
     72 H           4.1055    3.2596    0.0000 H       1  UNL1        0.0274
     73 H           5.8376    2.1857    0.0000 H       1  UNL1        0.0274
     74 H           6.0645    3.0327    0.0000 H       1  UNL1        0.0274
     75 H           5.2176    3.2596    0.0000 H       1  UNL1        0.0274
     76 H           3.2586    3.0326    0.0000 H       1  UNL1        0.0274
     77 H           3.4855    2.1857    0.0000 H       1  UNL1        0.0274
@<TRIPOS>BOND
     1     1     9    1
     2     1    10    1
     3     7     2    1
     4     2    20    1
     5     3    14    2
     6     4    19    2
     7     5    26    1
     8     5    32    1
     9     6    24    1
    10     6    63    1
    11     7     8    1
    12     7     9    1
    13     7    13    1
    14     8    10    1
    15     8    11    1
    16     8    40    1
    17     9    14    1
    18     9    16    1
    19    10    17    1
    20    10    18    1
    21    11    12    1
    22    11    41    1
    23    11    42    1
    24    12    14    1
    25    12    15    1
    26    12    43    1
    27    13    15    2
    28    13    19    1
    29    15    44    1
    30    16    22    1
    31    16    45    1
    32    16    46    1
    33    17    50    1
    34    17    51    1
    35    17    52    1
    36    18    47    1
    37    18    48    1
    38    18    49    1
    39    19    21    1
    40    20    21   ar
    41    20    23   ar
    42    21    24   ar
    43    22    25    2
    44    22    53    1
    45    23    26   ar
    46    23    28    1
    47    24    27   ar
    48    25    29    1
    49    25    30    1
    50    26    27   ar
    51    27    31    1
    52    28    33    1
    53    28    54    1
    54    28    55    1
    55    29    59    1
    56    29    60    1
    57    29    61    1
    58    30    56    1
    59    30    57    1
    60    30    58    1
    61    31    34    2
    62    31    62    1
    63    32    34    1
    64    32    35    1
    65    32    36    1
    66    33    37    2
    67    33    64    1
    68    34    65    1
    69    35    69    1
    70    35    70    1
    71    35    71    1
    72    36    66    1
    73    36    67    1
    74    36    68    1
    75    37    38    1
    76    37    39    1
    77    38    72    1
    78    38    76    1
    79    38    77    1
    80    39    73    1
    81    39    74    1
    82    39    75    1
