@<TRIPOS>MOLECULE
IMPHY000199
 141 148 0 0 0
SMALL
GASTEIGER

@<TRIPOS>ATOM
      1 O          18.3185    1.5505    0.0000 O.3     1  UNL1       -0.3601
      2 O          17.4387   -1.9466    0.0000 O.3     1  UNL1       -0.4571
      3 O          15.7105   -0.9399    0.0000 O.3     1  UNL1       -0.4539
      4 O          12.9292    2.6232    0.0000 O.3     1  UNL1       -0.3480
      5 O          19.7874   -2.4067    0.0000 O.2     1  UNL1       -0.2974
      6 O          18.9354   -2.8184    0.0000 O.2     1  UNL1       -0.2512
      7 O          16.5708   -2.4432    0.0000 O.2     1  UNL1       -0.2453
      8 O          11.1972    2.6232    0.0000 O.3     1  UNL1       -0.3456
      9 O          11.1972   -0.3768    0.0000 O.3     1  UNL1       -0.3770
     10 O           9.4651    0.6232    0.0000 O.3     1  UNL1       -0.3403
     11 O           8.5991    2.1232    0.0000 O.3     1  UNL1       -0.3431
     12 O           7.7331   -0.3768    0.0000 O.3     1  UNL1       -0.3841
     13 O           6.0010    0.6232    0.0000 O.3     1  UNL1       -0.3744
     14 O           6.0010    2.6232    0.0000 O.3     1  UNL1       -0.3402
     15 O           5.1350    1.1232    0.0000 O.3     1  UNL1       -0.3405
     16 O           4.2690    3.6232    0.0000 O.3     1  UNL1       -0.3841
     17 O           2.5369    2.6232    0.0000 O.3     1  UNL1       -0.3864
     18 O           2.5369    0.6232    0.0000 O.3     1  UNL1       -0.3865
     19 O           3.4030   -0.8768    0.0000 O.3     1  UNL1       -0.3924
     20 C          18.3144    0.5501    0.0000 C.3     1  UNL1        0.1090
     21 C          17.4503    1.0534    0.0000 C.3     1  UNL1        0.1066
     22 C          18.3105   -0.4499    0.0000 C.3     1  UNL1        0.0496
     23 C          16.5823    0.5568    0.0000 C.3     1  UNL1        0.0372
     24 C          15.6743    1.0671    0.0000 C.3     1  UNL1       -0.0200
     25 C          19.2618    0.8512    0.0000 C.3     1  UNL1       -0.0197
     26 C          17.4426   -0.9466    0.0000 C.3     1  UNL1        0.1488
     27 C          17.4704    2.0949    0.0000 C.3     1  UNL1       -0.0203
     28 C          16.5785   -0.4432    0.0000 C.3     1  UNL1        0.1467
     29 C          19.2556   -0.7583    0.0000 C.3     1  UNL1        0.0289
     30 C          15.6703    2.1087    0.0000 C.3     1  UNL1       -0.0327
     31 C          19.8423    0.0442    0.0000 C.3     1  UNL1       -0.0401
     32 C          16.5744    2.6261    0.0000 C.3     1  UNL1       -0.0469
     33 C          18.3067   -1.4499    0.0000 C.3     1  UNL1       -0.0527
     34 C          14.7453    0.5066    0.0000 C.3     1  UNL1       -0.0446
     35 C          15.6782    0.0671    0.0000 C.3     1  UNL1       -0.0588
     36 C          14.7370    2.6621    0.0000 C.3     1  UNL1       -0.0232
     37 C          13.7994    1.0382    0.0000 C.3     1  UNL1       -0.0260
     38 C          19.9973   -1.4290    0.0000 C.2     1  UNL1        0.1341
     39 C          13.7953    2.1232    0.0000 C.3     1  UNL1        0.0620
     40 C          20.9490   -1.1220    0.0000 C.3     1  UNL1       -0.0058
     41 C          17.9354   -2.8145    0.0000 C.2     1  UNL1        0.3043
     42 C          15.7067   -1.9399    0.0000 C.2     1  UNL1        0.3350
     43 C          12.0632    2.1232    0.0000 C.3     1  UNL1        0.1624
     44 C          17.4320   -3.6786    0.0000 C.3     1  UNL1        0.0332
     45 C          14.8387   -2.4365    0.0000 C.2     1  UNL1        0.0293
     46 C          12.0632    1.1232    0.0000 C.3     1  UNL1        0.0272
     47 C          13.9746   -1.9332    0.0000 C.3     1  UNL1       -0.0333
     48 C          14.8349   -3.4365    0.0000 C.2     1  UNL1       -0.0774
     49 C          11.1972    0.6232    0.0000 C.3     1  UNL1        0.0915
     50 C          10.3312    2.1232    0.0000 C.3     1  UNL1        0.0875
     51 C          10.3312    1.1232    0.0000 C.3     1  UNL1        0.1138
     52 C          13.9669   -3.9332    0.0000 C.3     1  UNL1       -0.0461
     53 C           9.4651    2.6232    0.0000 C.3     1  UNL1       -0.0361
     54 C          12.0632   -0.8768    0.0000 C.3     1  UNL1        0.0369
     55 C           8.5991    1.1232    0.0000 C.3     1  UNL1        0.1883
     56 C           7.7331    0.6232    0.0000 C.3     1  UNL1        0.1344
     57 C           6.8671    1.1232    0.0000 C.3     1  UNL1        0.1174
     58 C           7.7331    2.6232    0.0000 C.3     1  UNL1        0.0877
     59 C           6.8671    2.1232    0.0000 C.3     1  UNL1        0.1162
     60 C           7.7331    3.6232    0.0000 C.3     1  UNL1       -0.0360
     61 C           5.1350    2.1232    0.0000 C.3     1  UNL1        0.1884
     62 C           6.0010   -0.3768    0.0000 C.3     1  UNL1        0.0370
     63 C           4.2690    2.6232    0.0000 C.3     1  UNL1        0.1341
     64 C           3.4030    2.1232    0.0000 C.3     1  UNL1        0.1141
     65 C           4.2690    0.6232    0.0000 C.3     1  UNL1        0.1130
     66 C           3.4030    1.1232    0.0000 C.3     1  UNL1        0.1119
     67 C           4.2690   -0.3768    0.0000 C.3     1  UNL1        0.0730
     68 H          17.3168    0.1289    0.0000 H       1  UNL1        0.0372
     69 H          19.8003    1.1583    0.0000 H       1  UNL1        0.0294
     70 H          19.0129    1.4190    0.0000 H       1  UNL1        0.0294
     71 H          16.9044   -1.2545    0.0000 H       1  UNL1        0.0778
     72 H          18.0791    1.9770    0.0000 H       1  UNL1        0.0294
     73 H          17.6906    2.6744    0.0000 H       1  UNL1        0.0294
     74 H          16.0427   -0.1312    0.0000 H       1  UNL1        0.0776
     75 H          18.9447   -1.2947    0.0000 H       1  UNL1        0.0385
     76 H          15.6768    2.9587    0.0000 H       1  UNL1        0.0307
     77 H          20.3015   -0.3723    0.0000 H       1  UNL1        0.0273
     78 H          20.3047    0.4571    0.0000 H       1  UNL1        0.0273
     79 H          16.9771    3.0974    0.0000 H       1  UNL1        0.0269
     80 H          16.1789    3.1036    0.0000 H       1  UNL1        0.0269
     81 H          17.6867   -1.4475    0.0000 H       1  UNL1        0.0237
     82 H          18.3043   -2.0699    0.0000 H       1  UNL1        0.0237
     83 H          18.9267   -1.4523    0.0000 H       1  UNL1        0.0237
     84 H          14.3535    0.0261    0.0000 H       1  UNL1        0.0272
     85 H          15.1517    0.0384    0.0000 H       1  UNL1        0.0272
     86 H          15.0582    0.0647    0.0000 H       1  UNL1        0.0235
     87 H          15.6805   -0.5529    0.0000 H       1  UNL1        0.0235
     88 H          16.2981    0.0695    0.0000 H       1  UNL1        0.0235
     89 H          15.1398    3.1334    0.0000 H       1  UNL1        0.0293
     90 H          14.3415    3.1396    0.0000 H       1  UNL1        0.0293
     91 H          13.1882    1.1419    0.0000 H       1  UNL1        0.0290
     92 H          13.5926    0.4537    0.0000 H       1  UNL1        0.0290
     93 H          13.2589    1.8122    0.0000 H       1  UNL1        0.0597
     94 H          21.1393   -1.7121    0.0000 H       1  UNL1        0.0306
     95 H          21.5391   -0.9317    0.0000 H       1  UNL1        0.0306
     96 H          20.7587   -0.5319    0.0000 H       1  UNL1        0.0306
     97 H          12.0632    2.7432    0.0000 H       1  UNL1        0.0910
     98 H          16.8963   -3.3665    0.0000 H       1  UNL1        0.0342
     99 H          17.1200   -4.2143    0.0000 H       1  UNL1        0.0342
    100 H          17.9678   -3.9907    0.0000 H       1  UNL1        0.0342
    101 H          12.2753    0.5406    0.0000 H       1  UNL1        0.0340
    102 H          12.6738    1.2308    0.0000 H       1  UNL1        0.0340
    103 H          14.2867   -1.3975    0.0000 H       1  UNL1        0.0280
    104 H          13.4389   -1.6211    0.0000 H       1  UNL1        0.0280
    105 H          13.6626   -2.4689    0.0000 H       1  UNL1        0.0280
    106 H          15.3706   -3.7486    0.0000 H       1  UNL1        0.0574
    107 H          11.7341    0.3132    0.0000 H       1  UNL1        0.0624
    108 H          10.3312    2.7432    0.0000 H       1  UNL1        0.0621
    109 H           9.7942    1.4332    0.0000 H       1  UNL1        0.0649
    110 H          13.6590   -3.3951    0.0000 H       1  UNL1        0.0272
    111 H          13.4288   -4.2411    0.0000 H       1  UNL1        0.0272
    112 H          14.2749   -4.4713    0.0000 H       1  UNL1        0.0272
    113 H           9.7751    3.1601    0.0000 H       1  UNL1        0.0255
    114 H           8.9282    2.9332    0.0000 H       1  UNL1        0.0255
    115 H           9.1551    2.0862    0.0000 H       1  UNL1        0.0255
    116 H          11.7532   -1.4138    0.0000 H       1  UNL1        0.0524
    117 H          12.6002   -1.1868    0.0000 H       1  UNL1        0.0524
    118 H          12.3732   -0.3399    0.0000 H       1  UNL1        0.0524
    119 H           8.5991    0.5032    0.0000 H       1  UNL1        0.0938
    120 H           7.1962    0.3132    0.0000 H       1  UNL1        0.0671
    121 H           6.3301    1.4332    0.0000 H       1  UNL1        0.0650
    122 H           8.2700    2.9332    0.0000 H       1  UNL1        0.0621
    123 H           6.8671    2.7432    0.0000 H       1  UNL1        0.0650
    124 H           8.2700   -0.6868    0.0000 H       1  UNL1        0.2101
    125 H           8.3531    3.6232    0.0000 H       1  UNL1        0.0255
    126 H           7.7331    4.2432    0.0000 H       1  UNL1        0.0255
    127 H           7.1131    3.6232    0.0000 H       1  UNL1        0.0255
    128 H           5.1350    2.7432    0.0000 H       1  UNL1        0.0938
    129 H           5.3810   -0.3768    0.0000 H       1  UNL1        0.0524
    130 H           6.0010   -0.9968    0.0000 H       1  UNL1        0.0524
    131 H           6.6210   -0.3768    0.0000 H       1  UNL1        0.0524
    132 H           3.7320    2.9332    0.0000 H       1  UNL1        0.0671
    133 H           3.9650    2.7432    0.0000 H       1  UNL1        0.0648
    134 H           4.8059    0.3132    0.0000 H       1  UNL1        0.0647
    135 H           3.4030    0.5032    0.0000 H       1  UNL1        0.0647
    136 H           3.7320    3.9332    0.0000 H       1  UNL1        0.2101
    137 H           4.4810   -0.9594    0.0000 H       1  UNL1        0.0584
    138 H           4.8796   -0.2691    0.0000 H       1  UNL1        0.0584
    139 H           2.0000    2.3132    0.0000 H       1  UNL1        0.2100
    140 H           2.0000    0.9332    0.0000 H       1  UNL1        0.2100
    141 H           3.4030   -1.4968    0.0000 H       1  UNL1        0.2095
@<TRIPOS>BOND
     1    20     1    1
     2    21     1    1
     3    26     2    1
     4     2    41    1
     5    28     3    1
     6     3    42    1
     7    39     4    1
     8    43     4    1
     9     5    38    2
    10     6    41    2
    11     7    42    2
    12     8    43    1
    13     8    50    1
    14    49     9    1
    15     9    54    1
    16    51    10    1
    17    55    10    1
    18    11    55    1
    19    11    58    1
    20    56    12    1
    21    12   124    1
    22    57    13    1
    23    13    62    1
    24    59    14    1
    25    61    14    1
    26    15    61    1
    27    15    65    1
    28    63    16    1
    29    16   136    1
    30    64    17    1
    31    17   139    1
    32    66    18    1
    33    18   140    1
    34    19    67    1
    35    19   141    1
    36    20    21    1
    37    20    22    1
    38    20    25    1
    39    21    23    1
    40    21    27    1
    41    22    26    1
    42    22    29    1
    43    22    33    1
    44    23    24    1
    45    23    28    1
    46    23    68    1
    47    24    30    1
    48    24    34    1
    49    24    35    1
    50    25    31    1
    51    25    69    1
    52    25    70    1
    53    26    28    1
    54    26    71    1
    55    27    32    1
    56    27    72    1
    57    27    73    1
    58    28    74    1
    59    29    31    1
    60    29    38    1
    61    29    75    1
    62    30    32    1
    63    30    36    1
    64    30    76    1
    65    31    77    1
    66    31    78    1
    67    32    79    1
    68    32    80    1
    69    33    81    1
    70    33    82    1
    71    33    83    1
    72    34    37    1
    73    34    84    1
    74    34    85    1
    75    35    86    1
    76    35    87    1
    77    35    88    1
    78    36    39    1
    79    36    89    1
    80    36    90    1
    81    37    39    1
    82    37    91    1
    83    37    92    1
    84    38    40    1
    85    39    93    1
    86    40    94    1
    87    40    95    1
    88    40    96    1
    89    41    44    1
    90    42    45    1
    91    43    46    1
    92    43    97    1
    93    44    98    1
    94    44    99    1
    95    44   100    1
    96    45    47    1
    97    45    48    2
    98    46    49    1
    99    46   101    1
   100    46   102    1
   101    47   103    1
   102    47   104    1
   103    47   105    1
   104    48    52    1
   105    48   106    1
   106    49    51    1
   107    49   107    1
   108    50    51    1
   109    50    53    1
   110    50   108    1
   111    51   109    1
   112    52   110    1
   113    52   111    1
   114    52   112    1
   115    53   113    1
   116    53   114    1
   117    53   115    1
   118    54   116    1
   119    54   117    1
   120    54   118    1
   121    55    56    1
   122    55   119    1
   123    56    57    1
   124    56   120    1
   125    57    59    1
   126    57   121    1
   127    58    59    1
   128    58    60    1
   129    58   122    1
   130    59   123    1
   131    60   125    1
   132    60   126    1
   133    60   127    1
   134    61    63    1
   135    61   128    1
   136    62   129    1
   137    62   130    1
   138    62   131    1
   139    63    64    1
   140    63   132    1
   141    64    66    1
   142    64   133    1
   143    65    66    1
   144    65    67    1
   145    65   134    1
   146    66   135    1
   147    67   137    1
   148    67   138    1
