@<TRIPOS>MOLECULE
IMPHY008004
 32 33 0 0 0
SMALL
GASTEIGER

@<TRIPOS>ATOM
      1 O           4.2690   -2.1173    0.0000 O.3     1  UNL1       -0.5028
      2 O           2.5369   -1.1173    0.0000 O.3     1  UNL1       -0.5031
      3 O           6.0174   -2.1519    0.0000 O.2     1  UNL1       -0.2831
      4 O           7.7991   -1.1414    0.0000 O.2     1  UNL1       -0.2838
      5 C           6.0174    1.9173    0.0000 C.3     1  UNL1       -0.0208
      6 C           6.0290    0.9174    0.0000 C.2     1  UNL1       -0.0331
      7 C           5.1350    0.3827    0.0000 C.ar    1  UNL1       -0.0066
      8 C           5.1350   -0.6173    0.0000 C.ar    1  UNL1        0.0779
      9 C           4.2690    0.8827    0.0000 C.ar    1  UNL1       -0.0470
     10 C           6.9350    0.4035    0.0000 C.2     1  UNL1       -0.0070
     11 C           6.8776    2.4273    0.0000 C.3     1  UNL1       -0.0586
     12 C           5.1456    2.4073    0.0000 C.3     1  UNL1       -0.0586
     13 C           3.4030    0.3827    0.0000 C.ar    1  UNL1       -0.0048
     14 C           4.2690   -1.1173    0.0000 C.ar    1  UNL1        0.1702
     15 C           6.0290   -1.1520    0.0000 C.2     1  UNL1        0.2365
     16 C           3.4030   -0.6173    0.0000 C.ar    1  UNL1        0.1620
     17 C           6.9350   -0.6381    0.0000 C.2     1  UNL1        0.2263
     18 C           2.5369    0.8827    0.0000 C.3     1  UNL1       -0.0361
     19 H           6.0102    2.5373    0.0000 H       1  UNL1        0.0344
     20 H           4.2690    1.5027    0.0000 H       1  UNL1        0.0628
     21 H           7.4708    0.7156    0.0000 H       1  UNL1        0.0660
     22 H           7.1938    1.8940    0.0000 H       1  UNL1        0.0235
     23 H           7.4109    2.7435    0.0000 H       1  UNL1        0.0235
     24 H           6.5614    2.9606    0.0000 H       1  UNL1        0.0235
     25 H           5.4494    2.9477    0.0000 H       1  UNL1        0.0235
     26 H           4.6052    2.7110    0.0000 H       1  UNL1        0.0235
     27 H           4.8419    1.8668    0.0000 H       1  UNL1        0.0235
     28 H           2.8469    1.4196    0.0000 H       1  UNL1        0.0279
     29 H           2.0000    1.1927    0.0000 H       1  UNL1        0.0279
     30 H           2.2269    0.3458    0.0000 H       1  UNL1        0.0279
     31 H           3.7320   -2.4273    0.0000 H       1  UNL1        0.2923
     32 H           2.0000   -0.8073    0.0000 H       1  UNL1        0.2923
@<TRIPOS>BOND
     1     1    14    1
     2     1    31    1
     3     2    16    1
     4     2    32    1
     5     3    15    2
     6     4    17    2
     7     5     6    1
     8     5    11    1
     9     5    12    1
    10     5    19    1
    11     6     7    1
    12     6    10    2
    13     7     8   ar
    14     7     9   ar
    15     8    14   ar
    16     8    15    1
    17     9    13   ar
    18     9    20    1
    19    10    17    1
    20    10    21    1
    21    11    22    1
    22    11    23    1
    23    11    24    1
    24    12    25    1
    25    12    26    1
    26    12    27    1
    27    13    16   ar
    28    13    18    1
    29    14    16   ar
    30    15    17    1
    31    18    28    1
    32    18    29    1
    33    18    30    1
