@<TRIPOS>MOLECULE
IMPHY002416
 56 61 0 0 0
SMALL
GASTEIGER

@<TRIPOS>ATOM
      1 O           4.1643   -1.3247    0.0000 O.co2   1  UNL1       -0.7747
      2 O           7.2130    3.6114    0.0000 O.2     1  UNL1       -0.2749
      3 O           2.5878    1.8360    0.0000 O.3     1  UNL1       -0.4914
      4 O           3.3902    3.6382    0.0000 O.3     1  UNL1       -0.4914
      5 O           7.4246   -4.0148    0.0000 O.3     1  UNL1       -0.3910
      6 N           4.9192   -0.6689    0.0000 N.3     1  UNL1        0.2231
      7 N           6.4845    2.0422    0.0000 N.am    1  UNL1       -0.2626
      8 C           5.8444    0.6044    0.0000 C.3     1  UNL1        0.0676
      9 C           5.8444   -0.3684    0.0000 C.3     1  UNL1       -0.0084
     10 C           6.6868    1.0908    0.0000 C.3     1  UNL1        0.0676
     11 C           4.9192    0.9050    0.0000 C.3     1  UNL1        0.0043
     12 C           6.6868   -0.8547    0.0000 C.3     1  UNL1        0.0016
     13 C           7.5292   -0.3684    0.0000 C.3     1  UNL1        0.0131
     14 C           4.3475    0.1180    0.0000 C.3     1  UNL1       -0.0310
     15 C           7.5292    0.6044    0.0000 C.2     1  UNL1       -0.0439
     16 C           5.1215    1.2553    0.0000 C.ar    1  UNL1       -0.0085
     17 C           5.6924   -1.4168    0.0000 C.3     1  UNL1       -0.0099
     18 C           6.9246   -1.4168    0.0000 C.2     1  UNL1       -0.0197
     19 C           5.5171    2.1439    0.0000 C.ar    1  UNL1        0.0446
     20 C           8.3282    1.2078    0.0000 C.2     1  UNL1       -0.0737
     21 C           7.3053    2.6157    0.0000 C.2     1  UNL1        0.2241
     22 C           4.1541    1.1536    0.0000 C.ar    1  UNL1       -0.0106
     23 C           8.2174    2.2029    0.0000 C.3     1  UNL1        0.0430
     24 C           7.4246   -2.2828    0.0000 C.2     1  UNL1       -0.0541
     25 C           4.9454    2.9309    0.0000 C.ar    1  UNL1        0.0054
     26 C           3.5823    1.9406    0.0000 C.ar    1  UNL1        0.1619
     27 C           3.9780    2.8292    0.0000 C.ar    1  UNL1        0.1633
     28 C           6.9246   -3.1488    0.0000 C.3     1  UNL1        0.0628
     29 C           2.0000    2.6450    0.0000 C.3     1  UNL1        0.0790
     30 C           3.7969    4.5518    0.0000 C.3     1  UNL1        0.0790
     31 H           5.3751   -1.0771    0.0000 H       1  UNL1        0.0860
     32 H           7.3744    1.5904    0.0000 H       1  UNL1        0.0562
     33 H           5.1714    1.4714    0.0000 H       1  UNL1        0.0328
     34 H           4.3823    1.2150    0.0000 H       1  UNL1        0.0328
     35 H           6.2882   -1.3297    0.0000 H       1  UNL1        0.0329
     36 H           7.0853   -1.3297    0.0000 H       1  UNL1        0.0329
     37 H           8.3503   -0.5882    0.0000 H       1  UNL1        0.0395
     38 H           3.8867    0.5329    0.0000 H       1  UNL1        0.0814
     39 H           3.8867   -0.2968    0.0000 H       1  UNL1        0.0814
     40 H           5.1590   -1.7327    0.0000 H       1  UNL1        0.0863
     41 H           5.8562   -2.0147    0.0000 H       1  UNL1        0.0863
     42 H           8.8977    0.9626    0.0000 H       1  UNL1        0.0577
     43 H           3.9019    0.5872    0.0000 H       1  UNL1        0.0659
     44 H           8.8360    2.1609    0.0000 H       1  UNL1        0.0401
     45 H           8.3687    2.8041    0.0000 H       1  UNL1        0.0401
     46 H           8.0445   -2.2828    0.0000 H       1  UNL1        0.0596
     47 H           5.1975    3.4973    0.0000 H       1  UNL1        0.0674
     48 H           6.4496   -2.7503    0.0000 H       1  UNL1        0.0601
     49 H           6.4496   -3.5473    0.0000 H       1  UNL1        0.0601
     50 H           7.1146   -4.5518    0.0000 H       1  UNL1        0.2098
     51 H           2.5016    3.0095    0.0000 H       1  UNL1        0.0660
     52 H           1.6356    3.1466    0.0000 H       1  UNL1        0.0660
     53 H           1.4984    2.2806    0.0000 H       1  UNL1        0.0660
     54 H           4.3633    4.2996    0.0000 H       1  UNL1        0.0660
     55 H           4.0491    5.1182    0.0000 H       1  UNL1        0.0660
     56 H           3.2305    4.8039    0.0000 H       1  UNL1        0.0660
@<TRIPOS>UNITY_ATOM_ATTR
1 1
charge -1
6 1
charge 1
@<TRIPOS>BOND
     1     1     6    1
     2     2    21    2
     3     3    26    1
     4     3    29    1
     5     4    27    1
     6     4    30    1
     7     5    28    1
     8     5    50    1
     9     6     9    1
    10     6    14    1
    11     6    17    1
    12     7    10    1
    13     7    19    1
    14     7    21   am
    15     8     9    1
    16     8    10    1
    17     8    11    1
    18     8    16    1
    19     9    12    1
    20     9    31    1
    21    10    15    1
    22    10    32    1
    23    11    14    1
    24    11    33    1
    25    11    34    1
    26    12    13    1
    27    12    35    1
    28    12    36    1
    29    13    15    1
    30    13    18    1
    31    13    37    1
    32    14    38    1
    33    14    39    1
    34    15    20    2
    35    16    19   ar
    36    16    22   ar
    37    17    18    1
    38    17    40    1
    39    17    41    1
    40    18    24    2
    41    19    25   ar
    42    20    23    1
    43    20    42    1
    44    21    23    1
    45    22    26   ar
    46    22    43    1
    47    23    44    1
    48    23    45    1
    49    24    28    1
    50    24    46    1
    51    25    27   ar
    52    25    47    1
    53    26    27   ar
    54    28    48    1
    55    28    49    1
    56    29    51    1
    57    29    52    1
    58    29    53    1
    59    30    54    1
    60    30    55    1
    61    30    56    1
