@<TRIPOS>MOLECULE
IMPHY008833
 75 82 0 0 0
SMALL
GASTEIGER

@<TRIPOS>ATOM
      1 O          13.9972    2.6681    0.0000 O.3     1  UNL1       -0.2232
      2 O           9.4701   -1.8843    0.0000 O.3     1  UNL1       -0.3311
      3 O          16.4308    3.3738    0.0000 O.3     1  UNL1       -0.3334
      4 O           7.7381   -1.8776    0.0000 O.3     1  UNL1       -0.3257
      5 O          18.0771    2.8358    0.0000 O.3     1  UNL1       -0.3257
      6 O           9.4778    0.1157    0.0000 O.3     1  UNL1       -0.2149
      7 O          17.0521    5.2749    0.0000 O.3     1  UNL1       -0.2149
      8 O           7.7497    1.1224    0.0000 O.3     1  UNL1       -0.2174
      9 O          19.0091    5.6873    0.0000 O.3     1  UNL1       -0.2174
     10 O           6.0138    0.1291    0.0000 O.3     1  UNL1       -0.2176
     11 O          20.3448    4.1987    0.0000 O.3     1  UNL1       -0.2176
     12 O           6.0022   -2.8709    0.0000 O.3     1  UNL1       -0.3259
     13 O          20.7020    2.5039    0.0000 O.3     1  UNL1       -0.3259
     14 O           5.1304   -4.3676    0.0000 O.3     1  UNL1       -0.3284
     15 O          22.3483    1.9658    0.0000 O.3     1  UNL1       -0.3284
     16 O           4.2740   -1.8642    0.0000 O.3     1  UNL1       -0.2149
     17 O          20.0806    0.6029    0.0000 O.3     1  UNL1       -0.2149
     18 O           2.5381   -2.8576    0.0000 O.3     1  UNL1       -0.2174
     19 O          21.4163   -0.8857    0.0000 O.3     1  UNL1       -0.2174
     20 O           2.5304   -4.8575    0.0000 O.3     1  UNL1       -0.2177
     21 O          23.3733   -0.4733    0.0000 O.3     1  UNL1       -0.2177
     22 C          13.9972   -0.3319    0.0000 C.3     1  UNL1        0.0002
     23 C          14.8632    0.1681    0.0000 C.3     1  UNL1        0.0024
     24 C          13.1312    0.1681    0.0000 C.3     1  UNL1        0.0025
     25 C          12.2212   -0.3388    0.0000 C.3     1  UNL1        0.0002
     26 C          14.8632    1.1681    0.0000 C.3     1  UNL1        0.0327
     27 C          12.2131   -1.3804    0.0000 C.3     1  UNL1        0.0023
     28 C          14.0133   -1.3734    0.0000 C.3     1  UNL1        0.0000
     29 C          15.8094    1.4728    0.0000 C.3     1  UNL1        0.0275
     30 C          13.1312    1.1681    0.0000 C.3     1  UNL1        0.0329
     31 C          13.9972    1.6681    0.0000 C.3     1  UNL1        0.1520
     32 C          15.8094   -0.1367    0.0000 C.3     1  UNL1        0.0002
     33 C          13.1152   -1.9012    0.0000 C.3     1  UNL1        0.0001
     34 C          11.2777   -1.9301    0.0000 C.3     1  UNL1        0.0251
     35 C          16.3930    0.6681    0.0000 C.3     1  UNL1        0.0024
     36 C          11.2943    0.2253    0.0000 C.3     1  UNL1        0.0025
     37 C          14.6400   -1.0980    0.0000 C.3     1  UNL1        0.0000
     38 C          15.2053   -0.7716    0.0000 C.3     1  UNL1        0.0001
     39 C          12.2289    0.6612    0.0000 C.3     1  UNL1        0.0000
     40 C          10.3381   -1.3876    0.0000 C.3     1  UNL1        0.1177
     41 C          16.1201    2.4233    0.0000 C.3     1  UNL1        0.0957
     42 C          10.3464   -0.3026    0.0000 C.3     1  UNL1        0.0296
     43 C          10.7811   -2.7980    0.0000 C.3     1  UNL1        0.0024
     44 C          11.7810   -2.7942    0.0000 C.3     1  UNL1        0.0024
     45 C          17.0706    2.1127    0.0000 C.3     1  UNL1        0.0319
     46 C          15.1696    2.7340    0.0000 C.3     1  UNL1        0.0297
     47 C          17.2768    1.1342    0.0000 C.3     1  UNL1        0.0278
     48 C           8.6060   -1.3809    0.0000 C.3     1  UNL1        0.2694
     49 C          17.4093    3.5801    0.0000 C.3     1  UNL1        0.2693
     50 C           8.6099   -0.3809    0.0000 C.3     1  UNL1        0.2406
     51 C          17.7199    4.5306    0.0000 C.3     1  UNL1        0.2406
     52 C          18.2274    0.8235    0.0000 C.2     1  UNL1       -0.0345
     53 C           7.7458    0.1224    0.0000 C.3     1  UNL1        0.2198
     54 C          18.6984    4.7368    0.0000 C.3     1  UNL1        0.2198
     55 C           6.8740   -1.3743    0.0000 C.3     1  UNL1        0.1802
     56 C          19.0556    3.0420    0.0000 C.3     1  UNL1        0.1802
     57 C           6.8779   -0.3743    0.0000 C.3     1  UNL1        0.2143
     58 C          19.3663    3.9925    0.0000 C.3     1  UNL1        0.2143
     59 C          18.4336   -0.1550    0.0000 C.2     1  UNL1       -0.0478
     60 C           6.0061   -1.8709    0.0000 C.3     1  UNL1        0.1770
     61 C          19.7235    2.2977    0.0000 C.3     1  UNL1        0.1770
     62 C          19.3841   -0.4657    0.0000 C.3     1  UNL1        0.0260
     63 C          17.6893   -0.8229    0.0000 C.3     1  UNL1        0.0260
     64 C           5.1343   -3.3676    0.0000 C.3     1  UNL1        0.2695
     65 C          21.3698    1.7596    0.0000 C.3     1  UNL1        0.2695
     66 C           4.2702   -2.8642    0.0000 C.3     1  UNL1        0.2406
     67 C          21.0591    0.8091    0.0000 C.3     1  UNL1        0.2406
     68 C           3.4022   -3.3609    0.0000 C.3     1  UNL1        0.2197
     69 C          21.7270    0.0648    0.0000 C.3     1  UNL1        0.2197
     70 C           4.2625   -4.8642    0.0000 C.3     1  UNL1        0.1508
     71 C          23.0162    1.2215    0.0000 C.3     1  UNL1        0.1508
     72 C           3.3984   -4.3609    0.0000 C.3     1  UNL1        0.2118
     73 C          22.7055    0.2710    0.0000 C.3     1  UNL1        0.2118
     74 C           4.2586   -5.8642    0.0000 C.3     1  UNL1        0.0350
     75 C          23.9947    1.4277    0.0000 C.3     1  UNL1        0.0350
@<TRIPOS>BOND
     1     1    31    1
     2     2    40    1
     3     3    41    1
     4     4    48    1
     5     4    55    1
     6     5    49    1
     7     5    56    1
     8    12    60    1
     9    13    61    1
    10    14    64    1
    11    14    70    1
    12    15    65    1
    13    15    71    1
    14    22    23    1
    15    22    24    1
    16    22    28    1
    17    22    37    1
    18    23    26    1
    19    23    32    1
    20    23    38    1
    21    24    25    1
    22    24    30    1
    23    25    27    1
    24    25    36    1
    25    25    39    1
    26    26    29    1
    27    26    31    1
    28    27    33    1
    29    27    34    1
    30    28    33    1
    31    29    35    1
    32    29    41    1
    33    30    31    1
    34    32    35    1
    35    34    40    1
    36    34    43    1
    37    34    44    1
    38    36    42    1
    39    40    42    1
    40    41    45    1
    41    41    46    1
    42    45    47    1
    43    47    52    1
    44    48     2    1
    45    48    50    1
    46    49     3    1
    47    49    51    1
    48    50     6    1
    49    50    53    1
    50    51     7    1
    51    51    54    1
    52    52    59    2
    53    53     8    1
    54    53    57    1
    55    54     9    1
    56    54    58    1
    57    55    57    1
    58    55    60    1
    59    56    58    1
    60    56    61    1
    61    57    10    1
    62    58    11    1
    63    59    62    1
    64    59    63    1
    65    64    12    1
    66    64    66    1
    67    65    13    1
    68    65    67    1
    69    66    16    1
    70    66    68    1
    71    67    17    1
    72    67    69    1
    73    68    18    1
    74    68    72    1
    75    69    19    1
    76    69    73    1
    77    70    72    1
    78    70    74    1
    79    71    73    1
    80    71    75    1
    81    72    20    1
    82    73    21    1
