@<TRIPOS>MOLECULE
IMPHY006632
 38 39 0 0 0
SMALL
GASTEIGER

@<TRIPOS>ATOM
      1 O           4.2690    0.1550    0.0000 O.3     1  UNL1       -0.3312
      2 O           2.5369   -1.8450    0.0000 O.3     1  UNL1       -0.3865
      3 O           4.2690   -2.8450    0.0000 O.3     1  UNL1       -0.3864
      4 O           6.0010    0.1550    0.0000 O.3     1  UNL1       -0.4287
      5 O           6.0010   -1.8450    0.0000 O.3     1  UNL1       -0.3829
      6 O           2.5369    1.1550    0.0000 O.3     1  UNL1       -0.3924
      7 O           5.1350    1.6550    0.0000 O.2     1  UNL1       -0.2448
      8 N           7.7331    0.1550    0.0000 N.pl3   1  UNL1       -0.3573
      9 C           3.4030   -1.3450    0.0000 C.3     1  UNL1        0.1120
     10 C           4.2690   -1.8450    0.0000 C.3     1  UNL1        0.1152
     11 C           3.4030   -0.3450    0.0000 C.3     1  UNL1        0.1140
     12 C           5.1350   -1.3450    0.0000 C.3     1  UNL1        0.1455
     13 C           5.1350   -0.3450    0.0000 C.3     1  UNL1        0.2341
     14 C           2.5369    0.1550    0.0000 C.3     1  UNL1        0.0731
     15 C           6.0010    1.1550    0.0000 C.2     1  UNL1        0.3432
     16 C           6.8671    1.6550    0.0000 C.ar    1  UNL1        0.0796
     17 C           7.7331    1.1550    0.0000 C.ar    1  UNL1        0.0387
     18 C           6.8671    2.6550    0.0000 C.ar    1  UNL1       -0.0460
     19 C           8.5991    1.6550    0.0000 C.ar    1  UNL1       -0.0402
     20 C           7.7331    3.1550    0.0000 C.ar    1  UNL1       -0.0609
     21 C           8.5991    2.6550    0.0000 C.ar    1  UNL1       -0.0600
     22 H           3.4030   -1.9650    0.0000 H       1  UNL1        0.0647
     23 H           4.8059   -2.1550    0.0000 H       1  UNL1        0.0648
     24 H           3.4030    0.2750    0.0000 H       1  UNL1        0.0647
     25 H           5.6720   -1.0350    0.0000 H       1  UNL1        0.0683
     26 H           5.1350    0.2750    0.0000 H       1  UNL1        0.1085
     27 H           1.9264    0.2627    0.0000 H       1  UNL1        0.0584
     28 H           2.3249   -0.4276    0.0000 H       1  UNL1        0.0584
     29 H           2.0000   -1.5350    0.0000 H       1  UNL1        0.2100
     30 H           3.7320   -3.1550    0.0000 H       1  UNL1        0.2100
     31 H           6.5380   -1.5350    0.0000 H       1  UNL1        0.2102
     32 H           2.0000    1.4650    0.0000 H       1  UNL1        0.2095
     33 H           6.3301    2.9650    0.0000 H       1  UNL1        0.0626
     34 H           9.1360    1.3450    0.0000 H       1  UNL1        0.0636
     35 H           7.7331    3.7750    0.0000 H       1  UNL1        0.0618
     36 H           9.1360    2.9650    0.0000 H       1  UNL1        0.0618
     37 H           8.2700   -0.1550    0.0000 H       1  UNL1        0.1423
     38 H           7.1962   -0.1550    0.0000 H       1  UNL1        0.1423
@<TRIPOS>BOND
     1     1    11    1
     2     1    13    1
     3     9     2    1
     4     2    29    1
     5    10     3    1
     6     3    30    1
     7    13     4    1
     8     4    15    1
     9    12     5    1
    10     5    31    1
    11     6    14    1
    12     6    32    1
    13     7    15    2
    14     8    17    1
    15     8    37    1
    16     8    38    1
    17     9    10    1
    18     9    11    1
    19     9    22    1
    20    10    12    1
    21    10    23    1
    22    11    14    1
    23    11    24    1
    24    12    13    1
    25    12    25    1
    26    13    26    1
    27    14    27    1
    28    14    28    1
    29    15    16    1
    30    16    17   ar
    31    16    18   ar
    32    17    19   ar
    33    18    20   ar
    34    18    33    1
    35    19    21   ar
    36    19    34    1
    37    20    21   ar
    38    20    35    1
    39    21    36    1
