@<TRIPOS>MOLECULE
IMPHY001142
 187 197 0 0 0
SMALL
GASTEIGER

@<TRIPOS>ATOM
      1 O          12.1725   -5.7484    0.0000 O.3     1  UNL1       -0.3450
      2 O          14.1118   -6.0566    0.0000 O.3     1  UNL1       -0.3642
      3 O           9.3064    2.1113    0.0000 O.3     1  UNL1       -0.3451
      4 O          10.8090    2.9729    0.0000 O.3     1  UNL1       -0.3461
      5 O          11.4287   -9.7475    0.0000 O.3     1  UNL1       -0.3484
      6 O           8.3116    3.8464    0.0000 O.3     1  UNL1       -0.3378
      7 O           9.3168    5.5754    0.0000 O.3     1  UNL1       -0.3864
      8 O          11.3167    5.5694    0.0000 O.3     1  UNL1       -0.3869
      9 O           9.6966   -9.7475    0.0000 O.3     1  UNL1       -0.3405
     10 O           8.3168    5.5784    0.0000 O.3     1  UNL1       -0.3460
     11 O          11.4287  -11.7475    0.0000 O.3     1  UNL1       -0.3841
     12 O           6.3116    3.8524    0.0000 O.3     1  UNL1       -0.3378
     13 O           9.6966  -12.7475    0.0000 O.3     1  UNL1       -0.3864
     14 O           7.9646  -11.7475    0.0000 O.3     1  UNL1       -0.3865
     15 O           5.3168    5.5874    0.0000 O.3     1  UNL1       -0.3864
     16 O           6.3219    7.3164    0.0000 O.3     1  UNL1       -0.3405
     17 O           7.9646   -8.7475    0.0000 O.3     1  UNL1       -0.3924
     18 O           4.8142    4.7229    0.0000 O.3     1  UNL1       -0.3461
     19 O           7.8245    8.1780    0.0000 O.3     1  UNL1       -0.3431
     20 O           5.3064    2.1233    0.0000 O.3     1  UNL1       -0.3841
     21 O           5.3271    9.0515    0.0000 O.3     1  UNL1       -0.3378
     22 O           3.3064    2.1293    0.0000 O.3     1  UNL1       -0.3864
     23 O           2.3116    3.8643    0.0000 O.3     1  UNL1       -0.3869
     24 O           6.3323   10.7805    0.0000 O.3     1  UNL1       -0.3864
     25 O           8.3323   10.7745    0.0000 O.3     1  UNL1       -0.3866
     26 O           5.3323   10.7835    0.0000 O.3     1  UNL1       -0.3431
     27 O           3.3271    9.0574    0.0000 O.3     1  UNL1       -0.3841
     28 O           2.3323   10.7925    0.0000 O.3     1  UNL1       -0.3864
     29 O           3.3375   12.5215    0.0000 O.3     1  UNL1       -0.3866
     30 C          12.3634   -3.2791    0.0000 C.3     1  UNL1       -0.0233
     31 C          11.3634   -3.2800    0.0000 C.3     1  UNL1       -0.0295
     32 C          12.6689   -4.2251    0.0000 C.3     1  UNL1       -0.0015
     33 C          10.8626   -2.4144    0.0000 C.3     1  UNL1       -0.0306
     34 C          11.8647   -4.8094    0.0000 C.3     1  UNL1        0.0660
     35 C          11.3619   -1.5479    0.0000 C.3     1  UNL1       -0.0285
     36 C          11.0595   -4.2264    0.0000 C.3     1  UNL1       -0.0226
     37 C          12.8626   -2.4126    0.0000 C.3     1  UNL1       -0.0467
     38 C          13.4669   -4.8080    0.0000 C.3     1  UNL1        0.0158
     39 C          12.3619   -1.5470    0.0000 C.3     1  UNL1       -0.0486
     40 C          10.8543   -0.6384    0.0000 C.3     1  UNL1       -0.0078
     41 C          13.1607   -5.7475    0.0000 C.3     1  UNL1        0.1704
     42 C          13.3634   -3.2782    0.0000 C.3     1  UNL1       -0.0590
     43 C           9.8212   -2.4313    0.0000 C.3     1  UNL1       -0.0311
     44 C           9.8126   -0.6312    0.0000 C.2     1  UNL1       -0.0648
     45 C          11.4175    0.2890    0.0000 C.3     1  UNL1       -0.0413
     46 C           9.2926   -1.5338    0.0000 C.2     1  UNL1       -0.0839
     47 C          14.4185   -4.5006    0.0000 C.3     1  UNL1       -0.0572
     48 C          11.8542   -0.6452    0.0000 C.3     1  UNL1       -0.0556
     49 C          13.1607   -6.7475    0.0000 C.3     1  UNL1        0.0018
     50 C           9.2621    0.3037    0.0000 C.3     1  UNL1       -0.0047
     51 C          10.8888    1.2364    0.0000 C.3     1  UNL1       -0.0254
     52 C           9.8038    1.2438    0.0000 C.3     1  UNL1        0.0655
     53 C          12.2947   -7.2475    0.0000 C.3     1  UNL1       -0.0435
     54 C          12.2947   -8.2475    0.0000 C.3     1  UNL1       -0.0201
     55 C           9.8090    2.9759    0.0000 C.3     1  UNL1        0.1882
     56 C          11.4287   -8.7475    0.0000 C.3     1  UNL1        0.0533
     57 C          13.1607   -8.7475    0.0000 C.3     1  UNL1       -0.0603
     58 C           9.3116    3.8434    0.0000 C.3     1  UNL1        0.1406
     59 C           9.8142    4.7079    0.0000 C.3     1  UNL1        0.1141
     60 C          11.3116    3.8374    0.0000 C.3     1  UNL1        0.0792
     61 C          10.8142    4.7049    0.0000 C.3     1  UNL1        0.1069
     62 C          10.5626  -10.2475    0.0000 C.3     1  UNL1        0.1879
     63 C           7.8142    4.7139    0.0000 C.3     1  UNL1        0.1885
     64 C          10.5626  -11.2475    0.0000 C.3     1  UNL1        0.1341
     65 C           6.8142    4.7169    0.0000 C.3     1  UNL1        0.1406
     66 C           9.6966  -11.7475    0.0000 C.3     1  UNL1        0.1141
     67 C           8.8306  -10.2475    0.0000 C.3     1  UNL1        0.1130
     68 C           8.8306  -11.2475    0.0000 C.3     1  UNL1        0.1119
     69 C           6.3168    5.5844    0.0000 C.3     1  UNL1        0.1144
     70 C           7.8194    6.4459    0.0000 C.3     1  UNL1        0.0796
     71 C           6.8194    6.4489    0.0000 C.3     1  UNL1        0.1135
     72 C           7.9646   -9.7475    0.0000 C.3     1  UNL1        0.0730
     73 C           5.3116    3.8553    0.0000 C.3     1  UNL1        0.1881
     74 C           4.8090    2.9908    0.0000 C.3     1  UNL1        0.1341
     75 C           6.8245    8.1810    0.0000 C.3     1  UNL1        0.1887
     76 C           3.8090    2.9938    0.0000 C.3     1  UNL1        0.1137
     77 C           6.3271    9.0485    0.0000 C.3     1  UNL1        0.1406
     78 C           3.8142    4.7258    0.0000 C.3     1  UNL1        0.0792
     79 C           3.3116    3.8613    0.0000 C.3     1  UNL1        0.1069
     80 C           6.8297    9.9130    0.0000 C.3     1  UNL1        0.1143
     81 C           8.3271    9.0425    0.0000 C.3     1  UNL1        0.0873
     82 C           7.8297    9.9100    0.0000 C.3     1  UNL1        0.1095
     83 C           9.3271    9.0395    0.0000 C.3     1  UNL1       -0.0361
     84 C           4.8297    9.9190    0.0000 C.3     1  UNL1        0.1884
     85 C           3.8297    9.9220    0.0000 C.3     1  UNL1        0.1341
     86 C           3.3323   10.7895    0.0000 C.3     1  UNL1        0.1140
     87 C           4.8349   11.6510    0.0000 C.3     1  UNL1        0.0873
     88 C           3.8349   11.6540    0.0000 C.3     1  UNL1        0.1095
     89 C           5.3375   12.5156    0.0000 C.3     1  UNL1       -0.0361
     90 H          10.5182   -3.3706    0.0000 H       1  UNL1        0.0310
     91 H          13.3577   -3.7269    0.0000 H       1  UNL1        0.0335
     92 H          10.4440   -3.1541    0.0000 H       1  UNL1        0.0310
     93 H          11.1781   -5.3105    0.0000 H       1  UNL1        0.0600
     94 H          11.7875   -2.2837    0.0000 H       1  UNL1        0.0312
     95 H          10.4924   -3.9759    0.0000 H       1  UNL1        0.0293
     96 H          10.7507   -4.7641    0.0000 H       1  UNL1        0.0293
     97 H          13.3379   -2.8108    0.0000 H       1  UNL1        0.0271
     98 H          13.3372   -2.0137    0.0000 H       1  UNL1        0.0271
     99 H          13.9047   -5.2470    0.0000 H       1  UNL1        0.0354
    100 H          12.9443   -1.3345    0.0000 H       1  UNL1        0.0268
    101 H          12.2537   -0.9366    0.0000 H       1  UNL1        0.0268
    102 H          13.3639   -3.8982    0.0000 H       1  UNL1        0.0235
    103 H          13.9834   -3.2777    0.0000 H       1  UNL1        0.0235
    104 H          13.3629   -2.6582    0.0000 H       1  UNL1        0.0235
    105 H           9.2409   -2.6499    0.0000 H       1  UNL1        0.0310
    106 H           9.9372   -3.0404    0.0000 H       1  UNL1        0.0310
    107 H          11.8845   -0.1188    0.0000 H       1  UNL1        0.0274
    108 H          11.8992    0.6793    0.0000 H       1  UNL1        0.0274
    109 H           8.6726   -1.5367    0.0000 H       1  UNL1        0.0572
    110 H          14.6091   -5.0906    0.0000 H       1  UNL1        0.0234
    111 H          15.0085   -4.3100    0.0000 H       1  UNL1        0.0234
    112 H          14.2279   -3.9106    0.0000 H       1  UNL1        0.0234
    113 H          11.8500   -1.2652    0.0000 H       1  UNL1        0.0238
    114 H          12.4742   -0.6494    0.0000 H       1  UNL1        0.0238
    115 H          11.8585   -0.0252    0.0000 H       1  UNL1        0.0238
    116 H          13.3728   -7.3302    0.0000 H       1  UNL1        0.0317
    117 H          13.7713   -6.6399    0.0000 H       1  UNL1        0.0317
    118 H           8.7858    0.7006    0.0000 H       1  UNL1        0.0335
    119 H           8.7896   -0.0977    0.0000 H       1  UNL1        0.0335
    120 H          11.4739    1.4414    0.0000 H       1  UNL1        0.0290
    121 H          10.7869    1.8480    0.0000 H       1  UNL1        0.0290
    122 H           9.1838    1.2445    0.0000 H       1  UNL1        0.0600
    123 H          14.2407   -6.6630    0.0000 H       1  UNL1        0.2128
    124 H          12.0826   -6.6649    0.0000 H       1  UNL1        0.0270
    125 H          11.6841   -7.3552    0.0000 H       1  UNL1        0.0270
    126 H          12.2947   -8.8675    0.0000 H       1  UNL1        0.0320
    127 H           9.1890    2.9777    0.0000 H       1  UNL1        0.0937
    128 H          11.2166   -8.1649    0.0000 H       1  UNL1        0.0563
    129 H          10.8181   -8.8552    0.0000 H       1  UNL1        0.0563
    130 H          12.8507   -9.2845    0.0000 H       1  UNL1        0.0233
    131 H          13.6977   -9.0575    0.0000 H       1  UNL1        0.0233
    132 H          13.4707   -8.2106    0.0000 H       1  UNL1        0.0233
    133 H           9.0032    4.3812    0.0000 H       1  UNL1        0.0675
    134 H          10.1258    5.2439    0.0000 H       1  UNL1        0.0648
    135 H          11.7853    3.4375    0.0000 H       1  UNL1        0.0587
    136 H          11.7877    4.2345    0.0000 H       1  UNL1        0.0587
    137 H          11.4342    4.7031    0.0000 H       1  UNL1        0.0643
    138 H          10.5626   -9.6275    0.0000 H       1  UNL1        0.0937
    139 H           7.5026    4.1779    0.0000 H       1  UNL1        0.0938
    140 H           9.6284    6.1114    0.0000 H       1  UNL1        0.2100
    141 H          11.0996  -10.9375    0.0000 H       1  UNL1        0.0671
    142 H          11.9367    5.5676    0.0000 H       1  UNL1        0.2100
    143 H           6.1942    4.7187    0.0000 H       1  UNL1        0.0675
    144 H          10.2336  -12.0575    0.0000 H       1  UNL1        0.0648
    145 H           8.8306   -9.6275    0.0000 H       1  UNL1        0.0647
    146 H           8.2936  -10.9375    0.0000 H       1  UNL1        0.0647
    147 H           6.0084    6.1222    0.0000 H       1  UNL1        0.0648
    148 H           8.4026    6.6562    0.0000 H       1  UNL1        0.0587
    149 H           7.7135    7.0568    0.0000 H       1  UNL1        0.0587
    150 H           7.1310    6.9849    0.0000 H       1  UNL1        0.0647
    151 H          11.9656  -11.4375    0.0000 H       1  UNL1        0.2101
    152 H           7.3540   -9.6399    0.0000 H       1  UNL1        0.0584
    153 H           7.7525  -10.3301    0.0000 H       1  UNL1        0.0584
    154 H           9.1597  -13.0575    0.0000 H       1  UNL1        0.2100
    155 H           7.4276  -11.4375    0.0000 H       1  UNL1        0.2100
    156 H           5.6200    3.3175    0.0000 H       1  UNL1        0.0937
    157 H           5.0084    6.1252    0.0000 H       1  UNL1        0.2100
    158 H           4.4974    2.4548    0.0000 H       1  UNL1        0.0671
    159 H           7.4276   -8.4375    0.0000 H       1  UNL1        0.2095
    160 H           6.2045    8.1828    0.0000 H       1  UNL1        0.0938
    161 H           3.1890    2.9957    0.0000 H       1  UNL1        0.0647
    162 H           6.0187    9.5863    0.0000 H       1  UNL1        0.0675
    163 H           3.9237    5.3361    0.0000 H       1  UNL1        0.0587
    164 H           3.2322    4.9396    0.0000 H       1  UNL1        0.0587
    165 H           3.0032    4.3992    0.0000 H       1  UNL1        0.0643
    166 H           7.1413   10.4490    0.0000 H       1  UNL1        0.0648
    167 H           4.9948    1.5873    0.0000 H       1  UNL1        0.2101
    168 H           8.6355    8.5046    0.0000 H       1  UNL1        0.0621
    169 H           8.4497    9.9082    0.0000 H       1  UNL1        0.0646
    170 H           2.6864    2.1311    0.0000 H       1  UNL1        0.2100
    171 H           2.0000    3.3283    0.0000 H       1  UNL1        0.2100
    172 H           9.3252    8.4195    0.0000 H       1  UNL1        0.0255
    173 H           9.9471    9.0377    0.0000 H       1  UNL1        0.0255
    174 H           9.3290    9.6595    0.0000 H       1  UNL1        0.0255
    175 H           4.5181    9.3830    0.0000 H       1  UNL1        0.0938
    176 H           6.6439   11.3165    0.0000 H       1  UNL1        0.2100
    177 H           8.9523   10.7727    0.0000 H       1  UNL1        0.2100
    178 H           3.2097    9.9238    0.0000 H       1  UNL1        0.0671
    179 H           3.0239   11.3274    0.0000 H       1  UNL1        0.0648
    180 H           5.4549   11.6492    0.0000 H       1  UNL1        0.0621
    181 H           4.1465   12.1900    0.0000 H       1  UNL1        0.0646
    182 H           2.7071    9.0593    0.0000 H       1  UNL1        0.2101
    183 H           5.8735   12.2040    0.0000 H       1  UNL1        0.0255
    184 H           5.6491   13.0516    0.0000 H       1  UNL1        0.0255
    185 H           4.8015   12.8272    0.0000 H       1  UNL1        0.0255
    186 H           2.0239   11.3303    0.0000 H       1  UNL1        0.2100
    187 H           3.6491   13.0575    0.0000 H       1  UNL1        0.2100
@<TRIPOS>BOND
     1     1    34    1
     2     1    41    1
     3     2    41    1
     4     2   123    1
     5     3    52    1
     6    55     3    1
     7     4    55    1
     8     4    60    1
     9     5    56    1
    10    62     5    1
    11    58     6    1
    12    63     6    1
    13    59     7    1
    14     7   140    1
    15    61     8    1
    16     8   142    1
    17     9    62    1
    18     9    67    1
    19    10    63    1
    20    10    70    1
    21    64    11    1
    22    11   151    1
    23    65    12    1
    24    73    12    1
    25    66    13    1
    26    13   154    1
    27    68    14    1
    28    14   155    1
    29    69    15    1
    30    15   157    1
    31    71    16    1
    32    75    16    1
    33    17    72    1
    34    17   159    1
    35    18    73    1
    36    18    78    1
    37    19    75    1
    38    19    81    1
    39    74    20    1
    40    20   167    1
    41    77    21    1
    42    84    21    1
    43    76    22    1
    44    22   170    1
    45    79    23    1
    46    23   171    1
    47    80    24    1
    48    24   176    1
    49    82    25    1
    50    25   177    1
    51    26    84    1
    52    26    87    1
    53    85    27    1
    54    27   182    1
    55    86    28    1
    56    28   186    1
    57    88    29    1
    58    29   187    1
    59    30    31    1
    60    30    32    1
    61    30    37    1
    62    30    42    1
    63    31    33    1
    64    31    36    1
    65    31    90    1
    66    32    34    1
    67    32    38    1
    68    32    91    1
    69    33    35    1
    70    33    43    1
    71    33    92    1
    72    34    36    1
    73    34    93    1
    74    35    39    1
    75    35    40    1
    76    35    94    1
    77    36    95    1
    78    36    96    1
    79    37    39    1
    80    37    97    1
    81    37    98    1
    82    38    41    1
    83    38    47    1
    84    38    99    1
    85    39   100    1
    86    39   101    1
    87    40    44    1
    88    40    45    1
    89    40    48    1
    90    41    49    1
    91    42   102    1
    92    42   103    1
    93    42   104    1
    94    43    46    1
    95    43   105    1
    96    43   106    1
    97    44    46    2
    98    44    50    1
    99    45    51    1
   100    45   107    1
   101    45   108    1
   102    46   109    1
   103    47   110    1
   104    47   111    1
   105    47   112    1
   106    48   113    1
   107    48   114    1
   108    48   115    1
   109    49    53    1
   110    49   116    1
   111    49   117    1
   112    50    52    1
   113    50   118    1
   114    50   119    1
   115    51    52    1
   116    51   120    1
   117    51   121    1
   118    52   122    1
   119    53    54    1
   120    53   124    1
   121    53   125    1
   122    54    56    1
   123    54    57    1
   124    54   126    1
   125    55    58    1
   126    55   127    1
   127    56   128    1
   128    56   129    1
   129    57   130    1
   130    57   131    1
   131    57   132    1
   132    58    59    1
   133    58   133    1
   134    59    61    1
   135    59   134    1
   136    60    61    1
   137    60   135    1
   138    60   136    1
   139    61   137    1
   140    62    64    1
   141    62   138    1
   142    63    65    1
   143    63   139    1
   144    64    66    1
   145    64   141    1
   146    65    69    1
   147    65   143    1
   148    66    68    1
   149    66   144    1
   150    67    68    1
   151    67    72    1
   152    67   145    1
   153    68   146    1
   154    69    71    1
   155    69   147    1
   156    70    71    1
   157    70   148    1
   158    70   149    1
   159    71   150    1
   160    72   152    1
   161    72   153    1
   162    73    74    1
   163    73   156    1
   164    74    76    1
   165    74   158    1
   166    75    77    1
   167    75   160    1
   168    76    79    1
   169    76   161    1
   170    77    80    1
   171    77   162    1
   172    78    79    1
   173    78   163    1
   174    78   164    1
   175    79   165    1
   176    80    82    1
   177    80   166    1
   178    81    82    1
   179    81    83    1
   180    81   168    1
   181    82   169    1
   182    83   172    1
   183    83   173    1
   184    83   174    1
   185    84    85    1
   186    84   175    1
   187    85    86    1
   188    85   178    1
   189    86    88    1
   190    86   179    1
   191    87    88    1
   192    87    89    1
   193    87   180    1
   194    88   181    1
   195    89   183    1
   196    89   184    1
   197    89   185    1
