@<TRIPOS>MOLECULE
IMPHY017672
 37 37 0 0 0
SMALL
GASTEIGER

@<TRIPOS>ATOM
      1 O           0.6176    0.0665    0.0000 O.3     1  UNL1       -0.3912
      2 O           3.1984    9.1277    0.0000 O.3     2  UNL2       -0.4808
      3 O           2.3324    7.6277    0.0000 O.2     2  UNL2       -0.2513
      4 C           2.4130    1.5648    0.0000 C.3     1  UNL1       -0.0007
      5 C           1.9352    3.5133    0.0000 C.3     1  UNL1       -0.0242
      6 C           2.6718    2.5307    0.0000 C.3     1  UNL1       -0.0329
      7 C           1.0403    0.9728    0.0000 C.3     1  UNL1        0.0614
      8 C           3.8119    1.0560    0.0000 C.3     1  UNL1       -0.0445
      9 C           0.6982    1.9125    0.0000 C.3     1  UNL1       -0.0230
     10 C           4.0707    2.0219    0.0000 C.3     1  UNL1       -0.0490
     11 C           2.1542    0.5989    0.0000 C.3     1  UNL1       -0.0567
     12 C           2.0397    4.5079    0.0000 C.3     1  UNL1       -0.0590
     13 C           1.0216    3.9201    0.0000 C.3     1  UNL1       -0.0590
     14 C           1.4663    9.1277    0.0000 C.3     2  UNL2        0.0331
     15 C           2.3324    8.6277    0.0000 C.2     2  UNL2        0.3016
     16 H           2.6578    1.9109    0.0000 H       1  UNL1        0.0307
     17 H           1.4722    0.5280    0.0000 H       1  UNL1        0.0599
     18 H           3.6170    0.4674    0.0000 H       1  UNL1        0.0272
     19 H           4.4059    0.8782    0.0000 H       1  UNL1        0.0272
     20 H           0.5039    2.5012    0.0000 H       1  UNL1        0.0293
     21 H           0.1125    1.7093    0.0000 H       1  UNL1        0.0293
     22 H           4.6647    1.8441    0.0000 H       1  UNL1        0.0268
     23 H           4.2656    2.6105    0.0000 H       1  UNL1        0.0268
     24 H           1.5553    0.7593    0.0000 H       1  UNL1        0.0236
     25 H           1.9937    0.0000    0.0000 H       1  UNL1        0.0236
     26 H           2.7530    0.4384    0.0000 H       1  UNL1        0.0236
     27 H           2.6563    4.4431    0.0000 H       1  UNL1        0.0235
     28 H           2.1045    5.1245    0.0000 H       1  UNL1        0.0235
     29 H           1.4231    4.5727    0.0000 H       1  UNL1        0.0235
     30 H           1.2738    4.4865    0.0000 H       1  UNL1        0.0235
     31 H           0.4552    4.1722    0.0000 H       1  UNL1        0.0235
     32 H           0.7694    3.3537    0.0000 H       1  UNL1        0.0235
     33 H           0.0000    0.0124    0.0000 H       1  UNL1        0.2098
     34 H           1.7763    9.6647    0.0000 H       2  UNL2        0.0342
     35 H           0.9294    9.4377    0.0000 H       2  UNL2        0.0342
     36 H           1.1563    8.5908    0.0000 H       2  UNL2        0.0342
     37 H           3.7353    8.8177    0.0000 H       2  UNL2        0.2950
@<TRIPOS>BOND
     1     1     7    1
     2     1    33    1
     3     2    15    1
     4     2    37    1
     5     3    15    2
     6     4     5    1
     7     4     7    1
     8     4     8    1
     9     4    11    1
    10     5     6    1
    11     5    12    1
    12     5    13    1
    13     6     9    1
    14     6    10    1
    15     6    16    1
    16     7     9    1
    17     7    17    1
    18     8    10    1
    19     8    18    1
    20     8    19    1
    21     9    20    1
    22     9    21    1
    23    10    22    1
    24    10    23    1
    25    11    24    1
    26    11    25    1
    27    11    26    1
    28    12    27    1
    29    12    28    1
    30    12    29    1
    31    13    30    1
    32    13    31    1
    33    13    32    1
    34    14    15    1
    35    14    34    1
    36    14    35    1
    37    14    36    1
