@<TRIPOS>MOLECULE
IMPHY009443
 44 46 0 0 0
SMALL
GASTEIGER

@<TRIPOS>ATOM
      1 O           2.0000   -2.0116    0.0000 O.2     1  UNL1       -0.2968
      2 O           7.2622   -1.9875    0.0000 O.2     1  UNL1       -0.2920
      3 O           6.4082    2.5818    0.0000 O.3     1  UNL1       -0.5033
      4 O           8.1821    1.5576    0.0000 O.3     1  UNL1       -0.4914
      5 C           4.6641   -0.4875    0.0000 C.3     1  UNL1       -0.0018
      6 C           4.6641   -1.4875    0.0000 C.3     1  UNL1       -0.0128
      7 C           3.7702   -2.0221    0.0000 C.3     1  UNL1        0.0274
      8 C           3.7702    0.0472    0.0000 C.3     1  UNL1       -0.0366
      9 C           5.5301   -1.9875    0.0000 C.3     1  UNL1        0.0150
     10 C           5.5301    0.0125    0.0000 C.ar    1  UNL1       -0.0270
     11 C           2.8641   -0.4666    0.0000 C.3     1  UNL1        0.0072
     12 C           2.8641   -1.5083    0.0000 C.2     1  UNL1        0.1393
     13 C           4.6641    0.5125    0.0000 C.3     1  UNL1       -0.0552
     14 C           3.2802   -2.8939    0.0000 C.3     1  UNL1       -0.0528
     15 C           4.2801   -2.8823    0.0000 C.3     1  UNL1       -0.0528
     16 C           6.3961   -0.4875    0.0000 C.ar    1  UNL1        0.0248
     17 C           6.3961   -1.4875    0.0000 C.2     1  UNL1        0.1639
     18 C           5.5141    1.0540    0.0000 C.ar    1  UNL1       -0.0121
     19 C           7.3062    0.0194    0.0000 C.ar    1  UNL1       -0.0056
     20 C           6.4121    1.5818    0.0000 C.ar    1  UNL1        0.1588
     21 C           7.3142    1.0610    0.0000 C.ar    1  UNL1        0.1619
     22 C           9.0462    1.0543    0.0000 C.3     1  UNL1        0.0790
     23 H           4.6706   -2.3374    0.0000 H       1  UNL1        0.0323
     24 H           4.1748    0.5170    0.0000 H       1  UNL1        0.0278
     25 H           3.3765    0.5262    0.0000 H       1  UNL1        0.0278
     26 H           5.1316   -2.4624    0.0000 H       1  UNL1        0.0348
     27 H           5.9286   -2.4624    0.0000 H       1  UNL1        0.0348
     28 H           2.6550    0.1171    0.0000 H       1  UNL1        0.0342
     29 H           2.2532   -0.5727    0.0000 H       1  UNL1        0.0342
     30 H           5.2841    0.5125    0.0000 H       1  UNL1        0.0238
     31 H           4.6641    1.1325    0.0000 H       1  UNL1        0.0238
     32 H           4.0441    0.5125    0.0000 H       1  UNL1        0.0238
     33 H           2.7397   -2.5901    0.0000 H       1  UNL1        0.0239
     34 H           2.9764   -3.4344    0.0000 H       1  UNL1        0.0239
     35 H           3.8207   -3.1976    0.0000 H       1  UNL1        0.0239
     36 H           3.7468   -3.1985    0.0000 H       1  UNL1        0.0239
     37 H           4.5963   -3.4156    0.0000 H       1  UNL1        0.0239
     38 H           4.8134   -2.5661    0.0000 H       1  UNL1        0.0239
     39 H           4.9736    1.3578    0.0000 H       1  UNL1        0.0658
     40 H           7.8395   -0.2968    0.0000 H       1  UNL1        0.0662
     41 H           6.9440    2.8939    0.0000 H       1  UNL1        0.2923
     42 H           8.7342    0.5186    0.0000 H       1  UNL1        0.0660
     43 H           9.5820    0.7422    0.0000 H       1  UNL1        0.0660
     44 H           9.3583    1.5900    0.0000 H       1  UNL1        0.0660
@<TRIPOS>BOND
     1     1    12    2
     2     2    17    2
     3     3    20    1
     4     3    41    1
     5     4    21    1
     6     4    22    1
     7     5     6    1
     8     5     8    1
     9     5    10    1
    10     5    13    1
    11     6     7    1
    12     6     9    1
    13     6    23    1
    14     7    12    1
    15     7    14    1
    16     7    15    1
    17     8    11    1
    18     8    24    1
    19     8    25    1
    20     9    17    1
    21     9    26    1
    22     9    27    1
    23    10    16   ar
    24    10    18   ar
    25    11    12    1
    26    11    28    1
    27    11    29    1
    28    13    30    1
    29    13    31    1
    30    13    32    1
    31    14    33    1
    32    14    34    1
    33    14    35    1
    34    15    36    1
    35    15    37    1
    36    15    38    1
    37    16    17    1
    38    16    19   ar
    39    18    20   ar
    40    18    39    1
    41    19    21   ar
    42    19    40    1
    43    20    21   ar
    44    22    42    1
    45    22    43    1
    46    22    44    1
