@<TRIPOS>MOLECULE
IMPHY017355
 31 32 0 0 0
SMALL
GASTEIGER

@<TRIPOS>ATOM
      1 F           2.0000   -3.2500    0.0000 F       1  UNL1       -0.2054
      2 O           3.7320   -0.2500    0.0000 O.3     1  UNL1       -0.4256
      3 O           5.4641   -0.2500    0.0000 O.2     1  UNL1       -0.2501
      4 C           4.5981    1.2500    0.0000 C.3     1  UNL1        0.0569
      5 C           5.4641    1.7500    0.0000 C.3     1  UNL1       -0.0401
      6 C           3.7320    1.7500    0.0000 C.3     1  UNL1       -0.0401
      7 C           5.4641    2.7500    0.0000 C.3     1  UNL1       -0.0523
      8 C           3.7320    2.7500    0.0000 C.3     1  UNL1       -0.0523
      9 C           4.5981    3.2500    0.0000 C.3     1  UNL1       -0.0530
     10 C           4.5981    0.2500    0.0000 C.2     1  UNL1        0.3154
     11 C           3.7320   -1.2500    0.0000 C.ar    1  UNL1        0.1344
     12 C           2.8660   -1.7500    0.0000 C.ar    1  UNL1        0.0160
     13 C           4.5981   -1.7500    0.0000 C.ar    1  UNL1       -0.0191
     14 C           2.8660   -2.7500    0.0000 C.ar    1  UNL1        0.1269
     15 C           4.5981   -2.7500    0.0000 C.ar    1  UNL1       -0.0556
     16 C           3.7320   -3.2500    0.0000 C.ar    1  UNL1       -0.0262
     17 H           5.1350    0.9400    0.0000 H       1  UNL1        0.0413
     18 H           5.6762    1.1674    0.0000 H       1  UNL1        0.0273
     19 H           6.0747    1.8577    0.0000 H       1  UNL1        0.0273
     20 H           3.1215    1.8577    0.0000 H       1  UNL1        0.0273
     21 H           3.5200    1.1674    0.0000 H       1  UNL1        0.0273
     22 H           6.0747    2.6423    0.0000 H       1  UNL1        0.0265
     23 H           5.6762    3.3326    0.0000 H       1  UNL1        0.0265
     24 H           3.5200    3.3326    0.0000 H       1  UNL1        0.0265
     25 H           3.1215    2.6423    0.0000 H       1  UNL1        0.0265
     26 H           4.9966    3.7250    0.0000 H       1  UNL1        0.0265
     27 H           4.1996    3.7250    0.0000 H       1  UNL1        0.0265
     28 H           2.3291   -1.4400    0.0000 H       1  UNL1        0.0683
     29 H           5.1350   -1.4400    0.0000 H       1  UNL1        0.0654
     30 H           5.1350   -3.0600    0.0000 H       1  UNL1        0.0620
     31 H           3.7320   -3.8700    0.0000 H       1  UNL1        0.0646
@<TRIPOS>BOND
     1     1    14    1
     2     2    10    1
     3     2    11    1
     4     3    10    2
     5     4     5    1
     6     4     6    1
     7     4    10    1
     8     4    17    1
     9     5     7    1
    10     5    18    1
    11     5    19    1
    12     6     8    1
    13     6    20    1
    14     6    21    1
    15     7     9    1
    16     7    22    1
    17     7    23    1
    18     8     9    1
    19     8    24    1
    20     8    25    1
    21     9    26    1
    22     9    27    1
    23    11    12   ar
    24    11    13   ar
    25    12    14   ar
    26    12    28    1
    27    13    15   ar
    28    13    29    1
    29    14    16   ar
    30    15    16   ar
    31    15    30    1
    32    16    31    1
