@<TRIPOS>MOLECULE
IMPHY007524
 77 80 0 0 0
SMALL
GASTEIGER

@<TRIPOS>ATOM
      1 O           5.1350   -3.1550    0.0000 O.3     1  UNL1       -0.3313
      2 O          12.0632    3.8450    0.0000 O.3     1  UNL1       -0.3313
      3 O           3.4030   -5.1550    0.0000 O.3     1  UNL1       -0.3865
      4 O           5.1350   -6.1550    0.0000 O.3     1  UNL1       -0.3864
      5 O          11.1972    2.3450    0.0000 O.3     1  UNL1       -0.4604
      6 O          14.6613    4.3450    0.0000 O.3     1  UNL1       -0.3865
      7 O          14.6613    2.3450    0.0000 O.3     1  UNL1       -0.3864
      8 O           6.8671   -3.1550    0.0000 O.3     1  UNL1       -0.4571
      9 O           6.8671   -5.1550    0.0000 O.3     1  UNL1       -0.3829
     10 O          12.9292    1.3450    0.0000 O.3     1  UNL1       -0.3829
     11 O           2.5369   -3.6550    0.0000 O.3     1  UNL1       -0.3924
     12 O          13.7953    5.8450    0.0000 O.3     1  UNL1       -0.3924
     13 O           8.5991    0.8450    0.0000 O.3     1  UNL1       -0.4561
     14 O           8.5991   -2.1550    0.0000 O.3     1  UNL1       -0.4905
     15 O           6.8671    0.8450    0.0000 O.3     1  UNL1       -0.5058
     16 O           9.4651   -0.6550    0.0000 O.2     1  UNL1       -0.2447
     17 C           4.2690   -4.6550    0.0000 C.3     1  UNL1        0.1120
     18 C           5.1350   -5.1550    0.0000 C.3     1  UNL1        0.1152
     19 C          13.7953    3.8450    0.0000 C.3     1  UNL1        0.1120
     20 C          13.7953    2.8450    0.0000 C.3     1  UNL1        0.1152
     21 C           4.2690   -3.6550    0.0000 C.3     1  UNL1        0.1140
     22 C           6.0010   -4.6550    0.0000 C.3     1  UNL1        0.1454
     23 C          12.9292    4.3450    0.0000 C.3     1  UNL1        0.1140
     24 C          12.9292    2.3450    0.0000 C.3     1  UNL1        0.1454
     25 C           6.0010   -3.6550    0.0000 C.3     1  UNL1        0.2310
     26 C          12.0632    2.8450    0.0000 C.3     1  UNL1        0.2308
     27 C           3.4030   -3.1550    0.0000 C.3     1  UNL1        0.0731
     28 C          12.9292    5.3450    0.0000 C.3     1  UNL1        0.0731
     29 C          10.3312    2.8450    0.0000 C.ar    1  UNL1        0.1304
     30 C           6.8671   -2.1550    0.0000 C.ar    1  UNL1        0.1664
     31 C           9.4651    2.3450    0.0000 C.ar    1  UNL1        0.0315
     32 C           7.7331   -1.6550    0.0000 C.ar    1  UNL1        0.1792
     33 C          10.3312    3.8450    0.0000 C.ar    1  UNL1       -0.0194
     34 C           6.0010   -1.6550    0.0000 C.ar    1  UNL1       -0.0127
     35 C           9.4651    1.3450    0.0000 C.3     1  UNL1        0.1212
     36 C           7.7331   -0.6550    0.0000 C.ar    1  UNL1        0.1453
     37 C           8.5991    2.8450    0.0000 C.ar    1  UNL1       -0.0519
     38 C           6.0010   -0.6550    0.0000 C.ar    1  UNL1       -0.0157
     39 C           6.8671   -0.1550    0.0000 C.ar    1  UNL1        0.1346
     40 C           9.4651    4.3450    0.0000 C.ar    1  UNL1       -0.0583
     41 C           8.5991    3.8450    0.0000 C.ar    1  UNL1       -0.0612
     42 C           8.5991   -0.1550    0.0000 C.2     1  UNL1        0.3468
     43 C           8.5991   -3.1550    0.0000 C.3     1  UNL1        0.0790
     44 H           4.2690   -5.2750    0.0000 H       1  UNL1        0.0647
     45 H           5.6720   -5.4650    0.0000 H       1  UNL1        0.0648
     46 H          14.3322    3.5350    0.0000 H       1  UNL1        0.0647
     47 H          13.7953    2.2250    0.0000 H       1  UNL1        0.0648
     48 H           4.2690   -3.0350    0.0000 H       1  UNL1        0.0647
     49 H           6.5380   -4.3450    0.0000 H       1  UNL1        0.0683
     50 H          12.3923    4.6550    0.0000 H       1  UNL1        0.0647
     51 H          12.3923    2.0350    0.0000 H       1  UNL1        0.0683
     52 H           6.0010   -3.0350    0.0000 H       1  UNL1        0.1084
     53 H          11.5263    3.1550    0.0000 H       1  UNL1        0.1084
     54 H           3.8015   -2.6800    0.0000 H       1  UNL1        0.0584
     55 H           3.0044   -2.6800    0.0000 H       1  UNL1        0.0584
     56 H          12.7172    5.9276    0.0000 H       1  UNL1        0.0584
     57 H          12.3187    5.2373    0.0000 H       1  UNL1        0.0584
     58 H           3.4030   -5.7750    0.0000 H       1  UNL1        0.2100
     59 H           4.5981   -6.4650    0.0000 H       1  UNL1        0.2100
     60 H          15.1982    4.0350    0.0000 H       1  UNL1        0.2100
     61 H          15.1982    2.6550    0.0000 H       1  UNL1        0.2100
     62 H           6.8671   -5.7750    0.0000 H       1  UNL1        0.2102
     63 H          13.4662    1.0350    0.0000 H       1  UNL1        0.2102
     64 H           2.0000   -3.3450    0.0000 H       1  UNL1        0.2095
     65 H          13.7953    6.4650    0.0000 H       1  UNL1        0.2095
     66 H          10.8681    4.1550    0.0000 H       1  UNL1        0.0654
     67 H           5.4641   -1.9650    0.0000 H       1  UNL1        0.0656
     68 H           9.6772    0.7624    0.0000 H       1  UNL1        0.0750
     69 H          10.0757    1.4527    0.0000 H       1  UNL1        0.0750
     70 H           8.0622    2.5350    0.0000 H       1  UNL1        0.0623
     71 H           5.4641   -0.3450    0.0000 H       1  UNL1        0.0655
     72 H           9.4651    4.9650    0.0000 H       1  UNL1        0.0619
     73 H           8.0622    4.1550    0.0000 H       1  UNL1        0.0618
     74 H           7.9791   -3.1550    0.0000 H       1  UNL1        0.0660
     75 H           8.5991   -3.7750    0.0000 H       1  UNL1        0.0660
     76 H           9.2191   -3.1550    0.0000 H       1  UNL1        0.0660
     77 H           6.3301    1.1550    0.0000 H       1  UNL1        0.2922
@<TRIPOS>BOND
     1     1    21    1
     2     1    25    1
     3     2    23    1
     4     2    26    1
     5    17     3    1
     6     3    58    1
     7    18     4    1
     8     4    59    1
     9    26     5    1
    10     5    29    1
    11    19     6    1
    12     6    60    1
    13    20     7    1
    14     7    61    1
    15    25     8    1
    16     8    30    1
    17    22     9    1
    18     9    62    1
    19    24    10    1
    20    10    63    1
    21    11    27    1
    22    11    64    1
    23    12    28    1
    24    12    65    1
    25    13    35    1
    26    13    42    1
    27    14    32    1
    28    14    43    1
    29    15    39    1
    30    15    77    1
    31    16    42    2
    32    17    18    1
    33    17    21    1
    34    17    44    1
    35    18    22    1
    36    18    45    1
    37    19    20    1
    38    19    23    1
    39    19    46    1
    40    20    24    1
    41    20    47    1
    42    21    27    1
    43    21    48    1
    44    22    25    1
    45    22    49    1
    46    23    28    1
    47    23    50    1
    48    24    26    1
    49    24    51    1
    50    25    52    1
    51    26    53    1
    52    27    54    1
    53    27    55    1
    54    28    56    1
    55    28    57    1
    56    29    31   ar
    57    29    33   ar
    58    30    32   ar
    59    30    34   ar
    60    31    35    1
    61    31    37   ar
    62    32    36   ar
    63    33    40   ar
    64    33    66    1
    65    34    38   ar
    66    34    67    1
    67    35    68    1
    68    35    69    1
    69    36    39   ar
    70    36    42    1
    71    37    41   ar
    72    37    70    1
    73    38    39   ar
    74    38    71    1
    75    40    41   ar
    76    40    72    1
    77    41    73    1
    78    43    74    1
    79    43    75    1
    80    43    76    1
