@<TRIPOS>MOLECULE
IMPHY009268
 43 44 0 0 0
SMALL
GASTEIGER

@<TRIPOS>ATOM
      1 O           3.0000   -2.2990    0.0000 O.3     1  UNL1       -0.3886
      2 O           5.8503    2.0181    0.0000 O.2     1  UNL1       -0.2974
      3 C           4.3660    0.0670    0.0000 C.3     1  UNL1       -0.0230
      4 C           4.3660   -0.9330    0.0000 C.3     1  UNL1       -0.0086
      5 C           3.5000    0.5670    0.0000 C.3     1  UNL1       -0.0348
      6 C           3.5000   -1.4330    0.0000 C.3     1  UNL1        0.0664
      7 C           5.3122    0.3717    0.0000 C.3     1  UNL1        0.0207
      8 C           5.3122   -1.2377    0.0000 C.3     1  UNL1       -0.0467
      9 C           5.8958   -0.4330    0.0000 C.3     1  UNL1       -0.0429
     10 C           2.6340    0.0670    0.0000 C.3     1  UNL1       -0.0471
     11 C           2.6340   -0.9330    0.0000 C.3     1  UNL1       -0.0237
     12 C           3.0000    1.4330    0.0000 C.3     1  UNL1       -0.0436
     13 C           4.0000   -2.2990    0.0000 C.3     1  UNL1       -0.0358
     14 C           6.0566    1.0396    0.0000 C.2     1  UNL1        0.1336
     15 C           2.0000    1.4330    0.0000 C.3     1  UNL1       -0.0624
     16 C           3.5000    2.2990    0.0000 C.3     1  UNL1       -0.0624
     17 C           7.0071    0.7289    0.0000 C.3     1  UNL1       -0.0058
     18 H           4.4560    0.9122    0.0000 H       1  UNL1        0.0314
     19 H           4.4560   -1.7782    0.0000 H       1  UNL1        0.0331
     20 H           2.9011    0.7275    0.0000 H       1  UNL1        0.0306
     21 H           5.0034    0.9093    0.0000 H       1  UNL1        0.0380
     22 H           5.0612   -1.8046    0.0000 H       1  UNL1        0.0269
     23 H           5.8496   -1.5470    0.0000 H       1  UNL1        0.0269
     24 H           6.3567   -0.8477    0.0000 H       1  UNL1        0.0272
     25 H           6.3567   -0.0183    0.0000 H       1  UNL1        0.0272
     26 H           2.4219    0.6496    0.0000 H       1  UNL1        0.0269
     27 H           2.0234   -0.0407    0.0000 H       1  UNL1        0.0269
     28 H           2.0234   -0.8254    0.0000 H       1  UNL1        0.0293
     29 H           2.4219   -1.5156    0.0000 H       1  UNL1        0.0293
     30 H           3.6200    1.4330    0.0000 H       1  UNL1        0.0298
     31 H           3.4631   -2.6090    0.0000 H       1  UNL1        0.0257
     32 H           4.3100   -2.8360    0.0000 H       1  UNL1        0.0257
     33 H           4.5369   -1.9890    0.0000 H       1  UNL1        0.0257
     34 H           2.3800   -2.2990    0.0000 H       1  UNL1        0.2102
     35 H           2.0000    2.0530    0.0000 H       1  UNL1        0.0232
     36 H           1.3800    1.4330    0.0000 H       1  UNL1        0.0232
     37 H           2.0000    0.8130    0.0000 H       1  UNL1        0.0232
     38 H           4.0369    1.9890    0.0000 H       1  UNL1        0.0232
     39 H           3.8100    2.8360    0.0000 H       1  UNL1        0.0232
     40 H           2.9631    2.6090    0.0000 H       1  UNL1        0.0232
     41 H           6.8145    0.1396    0.0000 H       1  UNL1        0.0306
     42 H           7.5964    0.5363    0.0000 H       1  UNL1        0.0306
     43 H           7.1997    1.3182    0.0000 H       1  UNL1        0.0306
@<TRIPOS>BOND
     1     6     1    1
     2     1    34    1
     3     2    14    2
     4     3     4    1
     5     3     5    1
     6     3     7    1
     7     3    18    1
     8     4     6    1
     9     4     8    1
    10     4    19    1
    11     5    10    1
    12     5    12    1
    13     5    20    1
    14     6    11    1
    15     6    13    1
    16     7     9    1
    17     7    14    1
    18     7    21    1
    19     8     9    1
    20     8    22    1
    21     8    23    1
    22     9    24    1
    23     9    25    1
    24    10    11    1
    25    10    26    1
    26    10    27    1
    27    11    28    1
    28    11    29    1
    29    12    15    1
    30    12    16    1
    31    12    30    1
    32    13    31    1
    33    13    32    1
    34    13    33    1
    35    14    17    1
    36    15    35    1
    37    15    36    1
    38    15    37    1
    39    16    38    1
    40    16    39    1
    41    16    40    1
    42    17    41    1
    43    17    42    1
    44    17    43    1
