@<TRIPOS>MOLECULE
IMPHY007316
 36 37 0 0 0
SMALL
GASTEIGER

@<TRIPOS>ATOM
      1 O           6.9759   -0.8249    0.0000 O.3     1  UNL1       -0.3657
      2 O           3.4945   -0.0849    0.0000 O.2     1  UNL1       -0.4645
      3 C           6.1669   -0.2371    0.0000 C.3     1  UNL1        0.0693
      4 C           7.7849   -0.2371    0.0000 C.3     1  UNL1        0.0850
      5 C           6.4759    0.7140    0.0000 C.3     1  UNL1       -0.0230
      6 C           7.4759    0.7140    0.0000 C.3     1  UNL1       -0.0180
      7 C           5.2158   -0.5461    0.0000 C.3     1  UNL1        0.0406
      8 C           8.7360    0.0719    0.0000 C.3     1  UNL1       -0.0322
      9 C           4.4727    0.1230    0.0000 C.ar    1  UNL1        0.1105
     10 C           8.3727   -1.0461    0.0000 C.2     1  UNL1       -0.0600
     11 C           5.0079   -1.5243    0.0000 C.3     1  UNL1       -0.0531
     12 C           4.5772    1.1175    0.0000 C.ar    1  UNL1       -0.0201
     13 C           9.3672   -0.9416    0.0000 C.2     1  UNL1       -0.1000
     14 C           2.9945    0.7811    0.0000 C.ar    1  UNL1        0.1022
     15 C           3.6636    1.5243    0.0000 C.ar    1  UNL1       -0.0207
     16 C           2.0000    0.8857    0.0000 C.3     1  UNL1       -0.0064
     17 H           6.0339   -1.0766    0.0000 H       1  UNL1        0.0603
     18 H           6.5407    1.3306    0.0000 H       1  UNL1        0.0291
     19 H           5.8694    0.8429    0.0000 H       1  UNL1        0.0291
     20 H           8.0823    0.8429    0.0000 H       1  UNL1        0.0297
     21 H           7.4111    1.3306    0.0000 H       1  UNL1        0.0297
     22 H           4.6262   -0.7377    0.0000 H       1  UNL1        0.0402
     23 H           8.9276   -0.5177    0.0000 H       1  UNL1        0.0260
     24 H           9.3256    0.2635    0.0000 H       1  UNL1        0.0260
     25 H           8.5444    0.6616    0.0000 H       1  UNL1        0.0260
     26 H           8.1205   -1.6125    0.0000 H       1  UNL1        0.0594
     27 H           4.4014   -1.3954    0.0000 H       1  UNL1        0.0237
     28 H           4.8790   -2.1307    0.0000 H       1  UNL1        0.0237
     29 H           5.6144   -1.6532    0.0000 H       1  UNL1        0.0237
     30 H           5.1141    1.4275    0.0000 H       1  UNL1        0.0652
     31 H           9.7316   -1.4432    0.0000 H       1  UNL1        0.0533
     32 H           9.6194   -0.3752    0.0000 H       1  UNL1        0.0533
     33 H           3.5348    2.1307    0.0000 H       1  UNL1        0.0652
     34 H           2.0648    1.5023    0.0000 H       1  UNL1        0.0308
     35 H           1.3834    0.9505    0.0000 H       1  UNL1        0.0308
     36 H           1.9352    0.2690    0.0000 H       1  UNL1        0.0308
@<TRIPOS>BOND
     1     1     3    1
     2     1     4    1
     3     2     9   ar
     4     2    14   ar
     5     3     5    1
     6     3     7    1
     7     3    17    1
     8     4     6    1
     9     4     8    1
    10     4    10    1
    11     5     6    1
    12     5    18    1
    13     5    19    1
    14     6    20    1
    15     6    21    1
    16     7     9    1
    17     7    11    1
    18     7    22    1
    19     8    23    1
    20     8    24    1
    21     8    25    1
    22     9    12   ar
    23    10    13    2
    24    10    26    1
    25    11    27    1
    26    11    28    1
    27    11    29    1
    28    12    15   ar
    29    12    30    1
    30    13    31    1
    31    13    32    1
    32    14    15   ar
    33    14    16    1
    34    15    33    1
    35    16    34    1
    36    16    35    1
    37    16    36    1
