@<TRIPOS>MOLECULE
IMPHY003756
 40 41 0 0 0
SMALL
GASTEIGER

@<TRIPOS>ATOM
      1 O           5.2665    2.5948    0.0000 O.3     1  UNL1       -0.3875
      2 C           4.0835   -2.1294    0.0000 C.3     1  UNL1       -0.0307
      3 C           4.4245   -1.1805    0.0000 C.3     1  UNL1       -0.0259
      4 C           3.4848   -0.8385    0.0000 C.3     1  UNL1       -0.0161
      5 C           3.1361   -1.7845    0.0000 C.3     1  UNL1       -0.0408
      6 C           5.3642   -0.8385    0.0000 C.3     1  UNL1       -0.0306
      7 C           3.7434   -3.0698    0.0000 C.3     1  UNL1       -0.0595
      8 C           5.0239   -2.4695    0.0000 C.3     1  UNL1       -0.0595
      9 C           2.9848    0.0275    0.0000 C.2     1  UNL1       -0.0731
     10 C           3.1585    1.0124    0.0000 C.3     1  UNL1       -0.0291
     11 C           5.8642    0.0275    0.0000 C.2     1  UNL1       -0.0823
     12 C           3.9245    1.6551    0.0000 C.3     1  UNL1       -0.0193
     13 C           5.6905    1.0124    0.0000 C.2     1  UNL1       -0.0484
     14 C           4.9245    1.6551    0.0000 C.3     1  UNL1        0.0763
     15 C           2.0000   -0.1461    0.0000 C.2     1  UNL1       -0.0992
     16 C           6.5566    1.5124    0.0000 C.3     1  UNL1       -0.0414
     17 H           5.0268   -1.7803    0.0000 H       1  UNL1        0.0315
     18 H           2.6379   -0.9108    0.0000 H       1  UNL1        0.0349
     19 H           2.5540   -1.5709    0.0000 H       1  UNL1        0.0276
     20 H           2.9232   -2.3668    0.0000 H       1  UNL1        0.0276
     21 H           5.4002   -1.4574    0.0000 H       1  UNL1        0.0310
     22 H           5.9675   -0.9815    0.0000 H       1  UNL1        0.0310
     23 H           4.8131   -3.0525    0.0000 H       1  UNL1        0.0235
     24 H           5.6070   -2.6803    0.0000 H       1  UNL1        0.0235
     25 H           3.1604   -2.8589    0.0000 H       1  UNL1        0.0235
     26 H           3.5326   -3.6528    0.0000 H       1  UNL1        0.0235
     27 H           4.3265   -3.2806    0.0000 H       1  UNL1        0.0235
     28 H           5.2348   -1.8864    0.0000 H       1  UNL1        0.0235
     29 H           2.9129    1.5816    0.0000 H       1  UNL1        0.0311
     30 H           2.5426    0.9404    0.0000 H       1  UNL1        0.0311
     31 H           6.4748   -0.0801    0.0000 H       1  UNL1        0.0572
     32 H           4.1023    2.2491    0.0000 H       1  UNL1        0.0296
     33 H           3.4065    1.9958    0.0000 H       1  UNL1        0.0296
     34 H           5.5234    1.8156    0.0000 H       1  UNL1        0.0640
     35 H           1.6015    0.3288    0.0000 H       1  UNL1        0.0534
     36 H           1.7880   -0.7287    0.0000 H       1  UNL1        0.0534
     37 H           6.8666    0.9754    0.0000 H       1  UNL1        0.0275
     38 H           7.0935    1.8224    0.0000 H       1  UNL1        0.0275
     39 H           6.2466    2.0493    0.0000 H       1  UNL1        0.0275
     40 H           4.8680    3.0698    0.0000 H       1  UNL1        0.2102
@<TRIPOS>BOND
     1    14     1    1
     2     1    40    1
     3     2     3    1
     4     2     5    1
     5     2     7    1
     6     2     8    1
     7     3     4    1
     8     3     6    1
     9     3    17    1
    10     4     5    1
    11     4     9    1
    12     4    18    1
    13     5    19    1
    14     5    20    1
    15     6    11    1
    16     6    21    1
    17     6    22    1
    18     7    25    1
    19     7    26    1
    20     7    27    1
    21     8    23    1
    22     8    24    1
    23     8    28    1
    24     9    10    1
    25     9    15    2
    26    10    12    1
    27    10    29    1
    28    10    30    1
    29    11    13    2
    30    11    31    1
    31    12    14    1
    32    12    32    1
    33    12    33    1
    34    13    14    1
    35    13    16    1
    36    14    34    1
    37    15    35    1
    38    15    36    1
    39    16    37    1
    40    16    38    1
    41    16    39    1
