@<TRIPOS>MOLECULE
IMPHY006562
 11 9 0 0 0
SMALL
GASTEIGER

@<TRIPOS>ATOM
      1 CA          4.6289   -1.0171    0.0000 Ca      1  UNL1        0.0000
      2 O           3.7280   -1.4510    0.0000 O.co2   2  UNL2       -0.5000
      3 O           4.8514   -0.0422    0.0000 O.co2   2  UNL2       -0.5000
      4 O           2.0451   -1.6406    0.0000 O.co2   2  UNL2       -0.5000
      5 O           4.6618    1.6406    0.0000 O.co2   2  UNL2       -0.5000
      6 C           2.6045   -0.0422    0.0000 C.2     2  UNL2        0.0000
      7 C           3.2280    0.7396    0.0000 C.2     2  UNL2        0.0000
      8 C           2.8270   -1.0171    0.0000 C.2     2  UNL2        0.0000
      9 C           4.2280    0.7396    0.0000 C.2     2  UNL2        0.0000
     10 H           2.0000    0.0958    0.0000 H       2  UNL2        0.0000
     11 H           2.9589    1.2982    0.0000 H       2  UNL2        0.0000
@<TRIPOS>UNITY_ATOM_ATTR
1 1
charge 2
2 1
charge -1
3 1
charge -1
@<TRIPOS>BOND
     1     2     8   ar
     2     3     9   ar
     3     4     8   ar
     4     5     9   ar
     5     6     7    2
     6     6     8    1
     7     6    10    1
     8     7     9    1
     9     7    11    1
