@<TRIPOS>MOLECULE
IMPHY002688
 54 56 0 0 0
SMALL
GASTEIGER

@<TRIPOS>ATOM
      1 O           9.4893   -0.4861    0.0000 O.3     1  UNL1       -0.3883
      2 O           6.0010    0.4050    0.0000 O.2     1  UNL1       -0.4701
      3 O           6.8671   -1.0950    0.0000 O.3     1  UNL1       -0.3095
      4 O           8.9900    2.6602    0.0000 O.3     1  UNL1       -0.3911
      5 O           5.1350   -1.0950    0.0000 O.3     1  UNL1       -0.3404
      6 O           6.8671   -3.0950    0.0000 O.3     1  UNL1       -0.3841
      7 O           6.0010    3.4050    0.0000 O.3     1  UNL1       -0.4646
      8 O           5.1350   -4.0950    0.0000 O.3     1  UNL1       -0.3864
      9 O           3.4030   -3.0950    0.0000 O.3     1  UNL1       -0.3865
     10 O           7.7331    3.4050    0.0000 O.2     1  UNL1       -0.2452
     11 O           2.5369   -1.5950    0.0000 O.3     1  UNL1       -0.3924
     12 C           7.7331    0.4050    0.0000 C.3     1  UNL1        0.0596
     13 C           8.6793    0.1003    0.0000 C.3     1  UNL1        0.0748
     14 C           7.7331    1.4050    0.0000 C.3     1  UNL1        0.0310
     15 C           8.6793    1.7097    0.0000 C.3     1  UNL1        0.0655
     16 C           9.2629    0.9050    0.0000 C.3     1  UNL1        0.0029
     17 C           6.8671   -0.0950    0.0000 C.3     1  UNL1        0.2095
     18 C           6.8671    1.9050    0.0000 C.2     1  UNL1        0.0768
     19 C           8.3719   -0.8513    0.0000 C.3     1  UNL1       -0.0355
     20 C           6.0010    1.4050    0.0000 C.2     1  UNL1        0.0982
     21 C           6.0010   -1.5950    0.0000 C.3     1  UNL1        0.1918
     22 C           6.0010   -2.5950    0.0000 C.3     1  UNL1        0.1342
     23 C           5.1350   -3.0950    0.0000 C.3     1  UNL1        0.1141
     24 C           6.8671    2.9050    0.0000 C.2     1  UNL1        0.3382
     25 C           4.2690   -2.5950    0.0000 C.3     1  UNL1        0.1119
     26 C           4.2690   -1.5950    0.0000 C.3     1  UNL1        0.1130
     27 C           3.4030   -1.0950    0.0000 C.3     1  UNL1        0.0730
     28 C           6.0010    4.4050    0.0000 C.3     1  UNL1        0.0820
     29 H           7.8230   -0.4402    0.0000 H       1  UNL1        0.0396
     30 H           7.8230    2.2502    0.0000 H       1  UNL1        0.0383
     31 H           8.2418    2.1491    0.0000 H       1  UNL1        0.0600
     32 H           9.7238    0.4903    0.0000 H       1  UNL1        0.0318
     33 H           9.7238    1.3197    0.0000 H       1  UNL1        0.0318
     34 H           7.4040   -0.4050    0.0000 H       1  UNL1        0.1060
     35 H           7.7820   -0.6608    0.0000 H       1  UNL1        0.0257
     36 H           8.1814   -1.4413    0.0000 H       1  UNL1        0.0257
     37 H           8.9619   -1.0419    0.0000 H       1  UNL1        0.0257
     38 H          10.0553   -0.2330    0.0000 H       1  UNL1        0.2102
     39 H           5.4641    1.7150    0.0000 H       1  UNL1        0.1029
     40 H           6.0010   -0.9750    0.0000 H       1  UNL1        0.0939
     41 H           9.5966    2.7881    0.0000 H       1  UNL1        0.2098
     42 H           6.0010   -3.2150    0.0000 H       1  UNL1        0.0671
     43 H           4.5981   -3.4050    0.0000 H       1  UNL1        0.0648
     44 H           3.7320   -2.2850    0.0000 H       1  UNL1        0.0647
     45 H           4.2690   -0.9750    0.0000 H       1  UNL1        0.0647
     46 H           3.8015   -0.6201    0.0000 H       1  UNL1        0.0584
     47 H           3.0044   -0.6201    0.0000 H       1  UNL1        0.0584
     48 H           6.8671   -3.7150    0.0000 H       1  UNL1        0.2101
     49 H           4.5981   -4.4050    0.0000 H       1  UNL1        0.2100
     50 H           3.4030   -3.7150    0.0000 H       1  UNL1        0.2100
     51 H           6.6210    4.4050    0.0000 H       1  UNL1        0.0661
     52 H           6.0010    5.0250    0.0000 H       1  UNL1        0.0661
     53 H           5.3810    4.4050    0.0000 H       1  UNL1        0.0661
     54 H           2.0000   -1.2850    0.0000 H       1  UNL1        0.2095
@<TRIPOS>BOND
     1    13     1    1
     2     1    38    1
     3     2    17    1
     4     2    20    1
     5    17     3    1
     6    21     3    1
     7    15     4    1
     8     4    41    1
     9     5    21    1
    10     5    26    1
    11    22     6    1
    12     6    48    1
    13     7    24    1
    14     7    28    1
    15    23     8    1
    16     8    49    1
    17    25     9    1
    18     9    50    1
    19    10    24    2
    20    11    27    1
    21    11    54    1
    22    12    13    1
    23    12    14    1
    24    12    17    1
    25    12    29    1
    26    13    16    1
    27    13    19    1
    28    14    15    1
    29    14    18    1
    30    14    30    1
    31    15    16    1
    32    15    31    1
    33    16    32    1
    34    16    33    1
    35    17    34    1
    36    18    20    2
    37    18    24    1
    38    19    35    1
    39    19    36    1
    40    19    37    1
    41    20    39    1
    42    21    22    1
    43    21    40    1
    44    22    23    1
    45    22    42    1
    46    23    25    1
    47    23    43    1
    48    25    26    1
    49    25    44    1
    50    26    27    1
    51    26    45    1
    52    27    46    1
    53    27    47    1
    54    28    51    1
    55    28    52    1
    56    28    53    1
