@<TRIPOS>MOLECULE
IMPHY008149
 35 37 0 0 0
SMALL
GASTEIGER

@<TRIPOS>ATOM
      1 O           7.2019   -2.0630    0.0000 O.2     1  UNL1       -0.4184
      2 O           3.6948    0.0989    0.0000 O.3     1  UNL1       -0.4645
      3 O           5.0790   -2.8183    0.0000 O.2     1  UNL1       -0.2888
      4 O           6.3141    1.4684    0.0000 O.3     1  UNL1       -0.5028
      5 O           4.8516    1.3880    0.0000 O.2     1  UNL1       -0.2502
      6 O           8.9339   -2.0630    0.0000 O.2     1  UNL1       -0.2445
      7 O           8.0800    2.5062    0.0000 O.3     1  UNL1       -0.5009
      8 O           9.8539    1.4821    0.0000 O.3     1  UNL1       -0.5032
      9 C           5.3896   -0.2583    0.0000 C.3     1  UNL1        0.0927
     10 C           6.3359   -0.5630    0.0000 C.ar    1  UNL1        0.0241
     11 C           4.8060   -1.0630    0.0000 C.3     1  UNL1        0.0307
     12 C           6.3359   -1.5630    0.0000 C.ar    1  UNL1        0.1788
     13 C           7.2019   -0.0630    0.0000 C.ar    1  UNL1        0.0419
     14 C           5.3896   -1.8678    0.0000 C.2     1  UNL1        0.1994
     15 C           8.0679   -0.5630    0.0000 C.ar    1  UNL1        0.0741
     16 C           4.6453    0.4095    0.0000 C.2     1  UNL1        0.3151
     17 C           7.1858    0.9785    0.0000 C.ar    1  UNL1        0.1705
     18 C           8.0679   -1.5630    0.0000 C.ar    1  UNL1        0.3454
     19 C           8.9779   -0.0562    0.0000 C.ar    1  UNL1       -0.0017
     20 C           8.0839    1.5062    0.0000 C.ar    1  UNL1        0.2012
     21 C           8.9860    0.9854    0.0000 C.ar    1  UNL1        0.1628
     22 C           2.9505    0.7667    0.0000 C.3     1  UNL1        0.0897
     23 C           2.0000    0.4561    0.0000 C.3     1  UNL1       -0.0306
     24 H           5.6985    0.2793    0.0000 H       1  UNL1        0.0468
     25 H           4.3452   -0.6483    0.0000 H       1  UNL1        0.0357
     26 H           4.3452   -1.4778    0.0000 H       1  UNL1        0.0357
     27 H           9.5112   -0.3724    0.0000 H       1  UNL1        0.0664
     28 H           3.4384    1.1493    0.0000 H       1  UNL1        0.0694
     29 H           2.6585    1.3136    0.0000 H       1  UNL1        0.0694
     30 H           6.3069    2.0884    0.0000 H       1  UNL1        0.2923
     31 H           8.6158    2.8183    0.0000 H       1  UNL1        0.2924
     32 H           1.8074    1.0454    0.0000 H       1  UNL1        0.0262
     33 H           1.4107    0.2634    0.0000 H       1  UNL1        0.0262
     34 H           2.1926   -0.1333    0.0000 H       1  UNL1        0.0262
     35 H          10.3896    1.1700    0.0000 H       1  UNL1        0.2923
@<TRIPOS>BOND
     1     1    12   ar
     2     1    18   ar
     3     2    16    1
     4     2    22    1
     5     3    14    2
     6     4    17    1
     7     4    30    1
     8     5    16    2
     9     6    18    2
    10     7    20    1
    11     7    31    1
    12     8    21    1
    13     8    35    1
    14     9    10    1
    15     9    11    1
    16     9    16    1
    17     9    24    1
    18    10    12   ar
    19    10    13   ar
    20    11    14    1
    21    11    25    1
    22    11    26    1
    23    12    14    1
    24    13    15   ar
    25    13    17   ar
    26    15    18   ar
    27    15    19   ar
    28    17    20   ar
    29    19    21   ar
    30    19    27    1
    31    20    21   ar
    32    22    23    1
    33    22    28    1
    34    22    29    1
    35    23    32    1
    36    23    33    1
    37    23    34    1
