@<TRIPOS>MOLECULE
IMPHY002836
 31 33 0 0 0
SMALL
GASTEIGER

@<TRIPOS>ATOM
      1 O           6.3981   -0.7500    0.0000 O.2     1  UNL1       -0.4546
      2 O           2.8680    1.2741    0.0000 O.3     1  UNL1       -0.4951
      3 O           6.3981    2.2500    0.0000 O.2     1  UNL1       -0.2870
      4 C           5.5320    0.7500    0.0000 C.ar    1  UNL1        0.0674
      5 C           5.5320   -0.2500    0.0000 C.ar    1  UNL1        0.1395
      6 C           7.2641   -0.2500    0.0000 C.ar    1  UNL1        0.1392
      7 C           6.3981    1.2500    0.0000 C.ar    1  UNL1        0.1932
      8 C           8.1301   -0.7500    0.0000 C.ar    1  UNL1        0.0174
      9 C           4.6381    1.2847    0.0000 C.ar    1  UNL1       -0.0056
     10 C           7.2641    0.7500    0.0000 C.ar    1  UNL1        0.0287
     11 C           4.6381   -0.7847    0.0000 C.ar    1  UNL1       -0.0152
     12 C           3.7320    0.7708    0.0000 C.ar    1  UNL1        0.1210
     13 C           3.7320   -0.2708    0.0000 C.ar    1  UNL1       -0.0164
     14 C           8.1301   -1.7500    0.0000 C.ar    1  UNL1       -0.0511
     15 C           8.9962   -0.2500    0.0000 C.ar    1  UNL1       -0.0511
     16 C           8.9962   -2.2500    0.0000 C.ar    1  UNL1       -0.0611
     17 C           9.8622   -0.7500    0.0000 C.ar    1  UNL1       -0.0611
     18 C           9.8622   -1.7500    0.0000 C.ar    1  UNL1       -0.0617
     19 C           2.0000    0.7775    0.0000 C.3     1  UNL1        0.0788
     20 H           4.6453    1.9046    0.0000 H       1  UNL1        0.0662
     21 H           7.8010    1.0600    0.0000 H       1  UNL1        0.0693
     22 H           4.6453   -1.4046    0.0000 H       1  UNL1        0.0656
     23 H           3.1963   -0.5829    0.0000 H       1  UNL1        0.0655
     24 H           7.5932   -2.0600    0.0000 H       1  UNL1        0.0625
     25 H           8.9962    0.3700    0.0000 H       1  UNL1        0.0625
     26 H           8.9962   -2.8700    0.0000 H       1  UNL1        0.0618
     27 H          10.3991   -0.4400    0.0000 H       1  UNL1        0.0618
     28 H          10.3991   -2.0600    0.0000 H       1  UNL1        0.0618
     29 H           1.6921    1.3156    0.0000 H       1  UNL1        0.0660
     30 H           1.4619    0.4696    0.0000 H       1  UNL1        0.0660
     31 H           2.3079    0.2394    0.0000 H       1  UNL1        0.0660
@<TRIPOS>BOND
     1     1     5   ar
     2     1     6   ar
     3     2    12    1
     4     2    19    1
     5     3     7    2
     6     4     5   ar
     7     4     7   ar
     8     4     9   ar
     9     5    11   ar
    10     6     8    1
    11     6    10   ar
    12     7    10   ar
    13     8    14   ar
    14     8    15   ar
    15     9    12   ar
    16     9    20    1
    17    10    21    1
    18    11    13   ar
    19    11    22    1
    20    12    13   ar
    21    13    23    1
    22    14    16   ar
    23    14    24    1
    24    15    17   ar
    25    15    25    1
    26    16    18   ar
    27    16    26    1
    28    17    18   ar
    29    17    27    1
    30    18    28    1
    31    19    29    1
    32    19    30    1
    33    19    31    1
