@<TRIPOS>MOLECULE
IMPHY009566
 42 45 0 0 0
SMALL
GASTEIGER

@<TRIPOS>ATOM
      1 O           5.5103    1.3036    0.0000 O.3     1  UNL1       -0.5029
      2 O           7.2762    2.3414    0.0000 O.3     1  UNL1       -0.4914
      3 O           4.6497    0.8068    0.0000 O.3     1  UNL1       -0.5029
      4 O           2.8680   -0.2037    0.0000 O.3     1  UNL1       -0.4914
      5 N           8.1223   -2.2248    0.0000 N.3     1  UNL1       -0.3087
      6 C           7.2641   -1.7278    0.0000 C.3     1  UNL1        0.0378
      7 C           7.2641   -0.7278    0.0000 C.ar    1  UNL1       -0.0154
      8 C           6.3981   -2.2278    0.0000 C.3     1  UNL1       -0.0074
      9 C           8.1741   -0.2210    0.0000 C.ar    1  UNL1       -0.0372
     10 C           6.3981   -0.2278    0.0000 C.ar    1  UNL1        0.0360
     11 C           9.0134   -0.7492    0.0000 C.3     1  UNL1       -0.0146
     12 C           5.5320   -1.7278    0.0000 C.ar    1  UNL1       -0.0340
     13 C           8.9878   -1.7406    0.0000 C.3     1  UNL1        0.0004
     14 C           5.5320   -0.7278    0.0000 C.ar    1  UNL1        0.0344
     15 C           6.3820    0.8137    0.0000 C.ar    1  UNL1        0.1668
     16 C           8.1821    0.8206    0.0000 C.ar    1  UNL1       -0.0127
     17 C           7.2800    1.3414    0.0000 C.ar    1  UNL1        0.1622
     18 C           4.6381   -0.1932    0.0000 C.ar    1  UNL1        0.1667
     19 C           4.6381   -2.2625    0.0000 C.ar    1  UNL1       -0.0542
     20 C           3.7320   -0.7070    0.0000 C.ar    1  UNL1        0.1619
     21 C           3.7320   -1.7486    0.0000 C.ar    1  UNL1       -0.0160
     22 C           8.1403    2.8448    0.0000 C.3     1  UNL1        0.0790
     23 C           2.0000   -0.7003    0.0000 C.3     1  UNL1        0.0790
     24 H           7.2637   -2.3478    0.0000 H       1  UNL1        0.0513
     25 H           5.9995   -2.7028    0.0000 H       1  UNL1        0.0332
     26 H           6.7966   -2.7028    0.0000 H       1  UNL1        0.0332
     27 H           8.1177   -2.8448    0.0000 H       1  UNL1        0.1225
     28 H           9.6205   -0.8751    0.0000 H       1  UNL1        0.0326
     29 H           9.2452   -0.1742    0.0000 H       1  UNL1        0.0326
     30 H           9.1895   -2.3268    0.0000 H       1  UNL1        0.0427
     31 H           9.6006   -1.6462    0.0000 H       1  UNL1        0.0427
     32 H           8.7203    1.1285    0.0000 H       1  UNL1        0.0658
     33 H           4.6453   -2.8825    0.0000 H       1  UNL1        0.0622
     34 H           3.1963   -2.0607    0.0000 H       1  UNL1        0.0655
     35 H           5.5031    1.9236    0.0000 H       1  UNL1        0.2923
     36 H           4.1164    1.1229    0.0000 H       1  UNL1        0.2923
     37 H           8.4523    2.3090    0.0000 H       1  UNL1        0.0660
     38 H           8.6760    3.1568    0.0000 H       1  UNL1        0.0660
     39 H           7.8282    3.3805    0.0000 H       1  UNL1        0.0660
     40 H           1.6921   -0.1622    0.0000 H       1  UNL1        0.0660
     41 H           1.4619   -1.0083    0.0000 H       1  UNL1        0.0660
     42 H           2.3079   -1.2385    0.0000 H       1  UNL1        0.0660
@<TRIPOS>BOND
     1     1    15    1
     2     1    35    1
     3     2    17    1
     4     2    22    1
     5     3    18    1
     6     3    36    1
     7     4    20    1
     8     4    23    1
     9     5     6    1
    10     5    13    1
    11     5    27    1
    12     6     7    1
    13     6     8    1
    14     6    24    1
    15     7     9   ar
    16     7    10   ar
    17     8    12    1
    18     8    25    1
    19     8    26    1
    20     9    11    1
    21     9    16   ar
    22    10    14    1
    23    10    15   ar
    24    11    13    1
    25    11    28    1
    26    11    29    1
    27    12    14   ar
    28    12    19   ar
    29    13    30    1
    30    13    31    1
    31    14    18   ar
    32    15    17   ar
    33    16    17   ar
    34    16    32    1
    35    18    20   ar
    36    19    21   ar
    37    19    33    1
    38    20    21   ar
    39    21    34    1
    40    22    37    1
    41    22    38    1
    42    22    39    1
    43    23    40    1
    44    23    41    1
    45    23    42    1
