@<TRIPOS>MOLECULE
IMPHY014505
 42 44 0 0 0
SMALL
GASTEIGER

@<TRIPOS>ATOM
      1 O           2.4608   -1.0503    0.0000 O.3     1  UNL1       -0.3885
      2 C           4.7155    0.2025    0.0000 C.3     1  UNL1       -0.0155
      3 C           3.9065    0.7902    0.0000 C.3     1  UNL1       -0.0232
      4 C           5.5245    0.7902    0.0000 C.3     1  UNL1       -0.0319
      5 C           4.4059   -0.7422    0.0000 C.3     1  UNL1       -0.0088
      6 C           5.0252   -0.7422    0.0000 C.3     1  UNL1       -0.0460
      7 C           3.1038    0.2039    0.0000 C.3     1  UNL1       -0.0181
      8 C           3.4118   -0.7413    0.0000 C.3     1  UNL1        0.0669
      9 C           4.2155    1.7413    0.0000 C.3     1  UNL1       -0.0467
     10 C           5.2155    1.7413    0.0000 C.3     1  UNL1       -0.0489
     11 C           6.3272    0.2039    0.0000 C.3     1  UNL1       -0.0405
     12 C           6.0193   -0.7413    0.0000 C.3     1  UNL1       -0.0497
     13 C           3.0975    1.3780    0.0000 C.3     1  UNL1       -0.0589
     14 C           4.9923   -1.5522    0.0000 C.3     1  UNL1       -0.0593
     15 C           3.4118   -1.7413    0.0000 C.3     1  UNL1       -0.0358
     16 C           7.2788    0.5112    0.0000 C.3     1  UNL1       -0.0621
     17 H           6.0266    1.1540    0.0000 H       1  UNL1        0.0309
     18 H           4.1237   -1.2942    0.0000 H       1  UNL1        0.0331
     19 H           4.4190   -0.8723    0.0000 H       1  UNL1        0.0271
     20 H           5.0909   -1.3587    0.0000 H       1  UNL1        0.0271
     21 H           2.7927    0.7402    0.0000 H       1  UNL1        0.0298
     22 H           2.5378   -0.0491    0.0000 H       1  UNL1        0.0298
     23 H           4.2803    2.3579    0.0000 H       1  UNL1        0.0271
     24 H           3.6091    1.8702    0.0000 H       1  UNL1        0.0271
     25 H           5.8220    1.8702    0.0000 H       1  UNL1        0.0268
     26 H           5.1507    2.3579    0.0000 H       1  UNL1        0.0268
     27 H           6.7651   -0.2351    0.0000 H       1  UNL1        0.0301
     28 H           5.9546   -1.3579    0.0000 H       1  UNL1        0.0268
     29 H           6.6257   -0.8704    0.0000 H       1  UNL1        0.0268
     30 H           3.4619    1.8796    0.0000 H       1  UNL1        0.0235
     31 H           2.5959    1.7425    0.0000 H       1  UNL1        0.0235
     32 H           2.7331    0.8764    0.0000 H       1  UNL1        0.0235
     33 H           4.4900   -1.9158    0.0000 H       1  UNL1        0.0233
     34 H           5.3558   -2.0544    0.0000 H       1  UNL1        0.0233
     35 H           5.4945   -1.1886    0.0000 H       1  UNL1        0.0233
     36 H           2.7918   -1.7413    0.0000 H       1  UNL1        0.0257
     37 H           3.4118   -2.3613    0.0000 H       1  UNL1        0.0257
     38 H           4.0318   -1.7413    0.0000 H       1  UNL1        0.0257
     39 H           7.4694   -0.0788    0.0000 H       1  UNL1        0.0233
     40 H           7.8688    0.7018    0.0000 H       1  UNL1        0.0233
     41 H           7.0883    1.1012    0.0000 H       1  UNL1        0.0233
     42 H           2.0000   -0.6355    0.0000 H       1  UNL1        0.2102
@<TRIPOS>BOND
     1     8     1    1
     2     1    42    1
     3     2     3    1
     4     2     4    1
     5     2     5    1
     6     2     6    1
     7     3     7    1
     8     3     9    1
     9     3    13    1
    10     4    10    1
    11     4    11    1
    12     4    17    1
    13     5     8    1
    14     5    14    1
    15     5    18    1
    16     6    12    1
    17     6    19    1
    18     6    20    1
    19     7     8    1
    20     7    21    1
    21     7    22    1
    22     8    15    1
    23     9    10    1
    24     9    23    1
    25     9    24    1
    26    10    25    1
    27    10    26    1
    28    11    12    1
    29    11    16    1
    30    11    27    1
    31    12    28    1
    32    12    29    1
    33    13    30    1
    34    13    31    1
    35    13    32    1
    36    14    33    1
    37    14    34    1
    38    14    35    1
    39    15    36    1
    40    15    37    1
    41    15    38    1
    42    16    39    1
    43    16    40    1
    44    16    41    1
