@<TRIPOS>MOLECULE
IMPHY007979
 71 74 0 0 0
SMALL
GASTEIGER

@<TRIPOS>ATOM
      1 O           6.1600    0.0936    0.0000 O.3     1  UNL1       -0.4845
      2 O           2.5519    0.1185    0.0000 O.3     1  UNL1       -0.5055
      3 O           4.3472    3.2559    0.0000 O.3     1  UNL1       -0.5051
      4 O           6.1620    3.1961    0.0000 O.2     1  UNL1       -0.2955
      5 O           2.5319    3.2100    0.0000 O.2     1  UNL1       -0.2955
      6 C           9.6086   -1.9480    0.0000 C.3     1  UNL1       -0.0250
      7 C           8.7421   -1.4480    0.0000 C.3     1  UNL1       -0.0284
      8 C           8.7421   -2.4480    0.0000 C.3     1  UNL1       -0.0139
      9 C           7.8760   -0.9480    0.0000 C.3     1  UNL1       -0.0455
     10 C          10.1086   -2.8140    0.0000 C.3     1  UNL1       -0.0590
     11 C          10.1086   -1.0819    0.0000 C.3     1  UNL1       -0.0590
     12 C           7.0100   -1.4480    0.0000 C.3     1  UNL1       -0.0126
     13 C           7.8760   -2.9480    0.0000 C.2     1  UNL1       -0.0811
     14 C           6.1440   -0.9480    0.0000 C.3     1  UNL1        0.1113
     15 C           5.2780   -1.4480    0.0000 C.3     1  UNL1        0.0060
     16 C           4.3680   -0.9411    0.0000 C.3     1  UNL1       -0.0022
     17 C           7.0100   -2.4480    0.0000 C.2     1  UNL1       -0.0762
     18 C           5.2780   -2.4480    0.0000 C.3     1  UNL1       -0.0424
     19 C           6.1440   -2.9480    0.0000 C.3     1  UNL1       -0.0316
     20 C           7.0100   -0.4480    0.0000 C.3     1  UNL1       -0.0246
     21 C           4.3599    0.1005    0.0000 C.ar    1  UNL1        0.0407
     22 C           3.5078   -1.4511    0.0000 C.3     1  UNL1       -0.0432
     23 C           5.2620    0.6213    0.0000 C.ar    1  UNL1        0.1420
     24 C           7.3957   -1.9883    0.0000 C.3     1  UNL1       -0.0438
     25 C           3.5193   -2.4510    0.0000 C.3     1  UNL1       -0.0462
     26 C           3.4120    0.6284    0.0000 C.ar    1  UNL1        0.1375
     27 C           5.2787    1.7062    0.0000 C.ar    1  UNL1        0.0983
     28 C           3.4037    1.7134    0.0000 C.ar    1  UNL1        0.0980
     29 C           2.6592   -2.9610    0.0000 C.3     1  UNL1       -0.0626
     30 C           4.3911   -2.9410    0.0000 C.3     1  UNL1       -0.0626
     31 C           4.3433    2.2559    0.0000 C.ar    1  UNL1        0.1443
     32 C           6.1505    2.1961    0.0000 C.2     1  UNL1        0.1573
     33 C           2.5357    2.2101    0.0000 C.2     1  UNL1        0.1573
     34 H           9.1670   -0.7118    0.0000 H       1  UNL1        0.0312
     35 H           9.1670   -3.1841    0.0000 H       1  UNL1        0.0351
     36 H           8.2746   -0.4730    0.0000 H       1  UNL1        0.0270
     37 H           7.4775   -0.4730    0.0000 H       1  UNL1        0.0270
     38 H           9.5717   -3.1240    0.0000 H       1  UNL1        0.0235
     39 H          10.4186   -3.3509    0.0000 H       1  UNL1        0.0235
     40 H          10.6455   -2.5040    0.0000 H       1  UNL1        0.0235
     41 H          10.6455   -1.3919    0.0000 H       1  UNL1        0.0235
     42 H          10.4186   -0.5450    0.0000 H       1  UNL1        0.0235
     43 H           9.5717   -0.7719    0.0000 H       1  UNL1        0.0235
     44 H           6.6115   -1.9229    0.0000 H       1  UNL1        0.0304
     45 H           7.4085   -1.9229    0.0000 H       1  UNL1        0.0304
     46 H           7.8760   -3.5680    0.0000 H       1  UNL1        0.0575
     47 H           4.5451   -1.8786    0.0000 H       1  UNL1        0.0345
     48 H           3.8281   -0.6363    0.0000 H       1  UNL1        0.0355
     49 H           4.6674   -2.3403    0.0000 H       1  UNL1        0.0272
     50 H           5.0659   -3.0306    0.0000 H       1  UNL1        0.0272
     51 H           5.7455   -3.4229    0.0000 H       1  UNL1        0.0310
     52 H           6.5425   -3.4229    0.0000 H       1  UNL1        0.0310
     53 H           7.3200   -0.9849    0.0000 H       1  UNL1        0.0268
     54 H           7.5470   -0.1380    0.0000 H       1  UNL1        0.0268
     55 H           6.7000    0.0890    0.0000 H       1  UNL1        0.0268
     56 H           3.2890   -0.8710    0.0000 H       1  UNL1        0.0274
     57 H           2.8985   -1.5658    0.0000 H       1  UNL1        0.0274
     58 H           7.8706   -2.3869    0.0000 H       1  UNL1        0.0274
     59 H           7.7942   -1.5134    0.0000 H       1  UNL1        0.0274
     60 H           6.9207   -1.5898    0.0000 H       1  UNL1        0.0274
     61 H           4.0527   -2.1348    0.0000 H       1  UNL1        0.0296
     62 H           4.0873   -3.4815    0.0000 H       1  UNL1        0.0232
     63 H           4.9316   -3.2447    0.0000 H       1  UNL1        0.0232
     64 H           4.6949   -2.4005    0.0000 H       1  UNL1        0.0232
     65 H           2.3430   -2.4277    0.0000 H       1  UNL1        0.0232
     66 H           2.1258   -3.2772    0.0000 H       1  UNL1        0.0232
     67 H           2.9753   -3.4943    0.0000 H       1  UNL1        0.0232
     68 H           6.6838    1.8799    0.0000 H       1  UNL1        0.1084
     69 H           2.0114    0.4222    0.0000 H       1  UNL1        0.2922
     70 H           2.0000    1.8980    0.0000 H       1  UNL1        0.1084
     71 H           3.8114    3.5680    0.0000 H       1  UNL1        0.2922
@<TRIPOS>BOND
     1     1    14    1
     2     1    23    1
     3     2    26    1
     4     2    69    1
     5     3    31    1
     6     3    71    1
     7     4    32    2
     8     5    33    2
     9     6     7    1
    10     6     8    1
    11     6    10    1
    12     6    11    1
    13     7     8    1
    14     7     9    1
    15     7    34    1
    16     8    13    1
    17     8    35    1
    18     9    12    1
    19     9    36    1
    20     9    37    1
    21    10    38    1
    22    10    39    1
    23    10    40    1
    24    11    41    1
    25    11    42    1
    26    11    43    1
    27    12    14    1
    28    12    44    1
    29    12    45    1
    30    13    17    2
    31    13    46    1
    32    14    15    1
    33    14    20    1
    34    15    16    1
    35    15    18    1
    36    15    47    1
    37    16    21    1
    38    16    22    1
    39    16    48    1
    40    17    19    1
    41    17    24    1
    42    18    19    1
    43    18    49    1
    44    18    50    1
    45    19    51    1
    46    19    52    1
    47    20    53    1
    48    20    54    1
    49    20    55    1
    50    21    23   ar
    51    21    26   ar
    52    22    25    1
    53    22    56    1
    54    22    57    1
    55    23    27   ar
    56    24    58    1
    57    24    59    1
    58    24    60    1
    59    25    29    1
    60    25    30    1
    61    25    61    1
    62    26    28   ar
    63    27    31   ar
    64    27    32    1
    65    28    31   ar
    66    28    33    1
    67    29    65    1
    68    29    66    1
    69    29    67    1
    70    30    62    1
    71    30    63    1
    72    30    64    1
    73    32    68    1
    74    33    70    1
