@<TRIPOS>MOLECULE
IMPHY015361
 16 16 0 0 0
SMALL
GASTEIGER

@<TRIPOS>ATOM
      1 S           4.5981   -1.0000    0.0000 S.3     1  UNL1       -0.0812
      2 S           5.4641   -0.5000    0.0000 S.3     1  UNL1       -0.0882
      3 C           3.7320   -0.5000    0.0000 C.3     1  UNL1        0.0514
      4 C           3.7320    0.5000    0.0000 C.2     1  UNL1       -0.0698
      5 C           5.4641    0.5000    0.0000 C.3     1  UNL1        0.0221
      6 C           4.5981    1.0000    0.0000 C.2     1  UNL1       -0.0760
      7 C           2.8660   -1.0000    0.0000 C.2     1  UNL1       -0.0738
      8 C           2.0000   -0.5000    0.0000 C.2     1  UNL1       -0.1013
      9 H           3.7320   -1.1200    0.0000 H       1  UNL1        0.0507
     10 H           3.1951    0.8100    0.0000 H       1  UNL1        0.0583
     11 H           6.0747    0.3923    0.0000 H       1  UNL1        0.0427
     12 H           5.6762    1.0826    0.0000 H       1  UNL1        0.0427
     13 H           4.5981    1.6200    0.0000 H       1  UNL1        0.0578
     14 H           2.8660   -1.6200    0.0000 H       1  UNL1        0.0581
     15 H           2.0000    0.1200    0.0000 H       1  UNL1        0.0532
     16 H           1.4631   -0.8100    0.0000 H       1  UNL1        0.0532
@<TRIPOS>BOND
     1     1     2    1
     2     1     3    1
     3     2     5    1
     4     3     4    1
     5     3     7    1
     6     3     9    1
     7     4     6    2
     8     4    10    1
     9     5     6    1
    10     5    11    1
    11     5    12    1
    12     6    13    1
    13     7     8    2
    14     7    14    1
    15     8    15    1
    16     8    16    1
