@<TRIPOS>MOLECULE
IMPHY015655
 29 29 0 0 0
SMALL
GASTEIGER

@<TRIPOS>ATOM
      1 O           2.8660   -0.0000    0.0000 O.3     1  UNL1       -0.4906
      2 O           5.4641    1.5000    0.0000 O.3     1  UNL1       -0.4614
      3 O           2.8660   -2.0000    0.0000 O.3     1  UNL1       -0.4914
      4 O           3.7320    1.5000    0.0000 O.2     1  UNL1       -0.2448
      5 C           4.5981   -0.0000    0.0000 C.ar    1  UNL1        0.1041
      6 C           3.7320   -0.5000    0.0000 C.ar    1  UNL1        0.1754
      7 C           3.7320   -1.5000    0.0000 C.ar    1  UNL1        0.1623
      8 C           5.4641   -0.5000    0.0000 C.ar    1  UNL1       -0.0440
      9 C           4.5981   -2.0000    0.0000 C.ar    1  UNL1       -0.0163
     10 C           5.4641   -1.5000    0.0000 C.ar    1  UNL1       -0.0573
     11 C           4.5981    1.0000    0.0000 C.2     1  UNL1        0.3429
     12 C           5.4641    2.5000    0.0000 C.3     1  UNL1        0.0900
     13 C           6.3301    3.0000    0.0000 C.3     1  UNL1       -0.0306
     14 C           2.0000   -0.5000    0.0000 C.3     1  UNL1        0.0790
     15 C           2.8660   -3.0000    0.0000 C.3     1  UNL1        0.0790
     16 H           6.0010   -0.1900    0.0000 H       1  UNL1        0.0627
     17 H           4.5981   -2.6200    0.0000 H       1  UNL1        0.0655
     18 H           6.0010   -1.8100    0.0000 H       1  UNL1        0.0619
     19 H           5.2520    3.0826    0.0000 H       1  UNL1        0.0695
     20 H           4.8535    2.3923    0.0000 H       1  UNL1        0.0695
     21 H           6.6401    2.4631    0.0000 H       1  UNL1        0.0262
     22 H           6.8671    3.3100    0.0000 H       1  UNL1        0.0262
     23 H           6.0201    3.5369    0.0000 H       1  UNL1        0.0262
     24 H           1.6900    0.0369    0.0000 H       1  UNL1        0.0660
     25 H           1.4631   -0.8100    0.0000 H       1  UNL1        0.0660
     26 H           2.3100   -1.0369    0.0000 H       1  UNL1        0.0660
     27 H           2.2460   -3.0000    0.0000 H       1  UNL1        0.0660
     28 H           2.8660   -3.6200    0.0000 H       1  UNL1        0.0660
     29 H           3.4860   -3.0000    0.0000 H       1  UNL1        0.0660
@<TRIPOS>BOND
     1     1     6    1
     2     1    14    1
     3     2    11    1
     4     2    12    1
     5     3     7    1
     6     3    15    1
     7     4    11    2
     8     5     6   ar
     9     5     8   ar
    10     5    11    1
    11     6     7   ar
    12     7     9   ar
    13     8    10   ar
    14     8    16    1
    15     9    10   ar
    16     9    17    1
    17    10    18    1
    18    12    13    1
    19    12    19    1
    20    12    20    1
    21    13    21    1
    22    13    22    1
    23    13    23    1
    24    14    24    1
    25    14    25    1
    26    14    26    1
    27    15    27    1
    28    15    28    1
    29    15    29    1
