@<TRIPOS>MOLECULE
IMPHY009703
 39 41 0 0 0
SMALL
GASTEIGER

@<TRIPOS>ATOM
      1 C           3.8915    0.1079    0.0000 C.3     1  UNL1        0.0005
      2 C           3.0825    0.6957    0.0000 C.3     1  UNL1       -0.0188
      3 C           4.7005    0.6957    0.0000 C.3     1  UNL1       -0.0286
      4 C           4.2012   -0.8367    0.0000 C.3     1  UNL1       -0.0426
      5 C           3.3915    1.6468    0.0000 C.3     1  UNL1       -0.0462
      6 C           5.5032    0.1093    0.0000 C.3     1  UNL1       -0.0402
      7 C           4.3915    1.6468    0.0000 C.3     1  UNL1       -0.0486
      8 C           3.5819   -0.8367    0.0000 C.2     1  UNL1       -0.0667
      9 C           2.2798    0.1093    0.0000 C.3     1  UNL1       -0.0255
     10 C           5.1952   -0.8359    0.0000 C.3     1  UNL1       -0.0494
     11 C           2.5878   -0.8359    0.0000 C.2     1  UNL1       -0.0725
     12 C           2.2735    1.2835    0.0000 C.3     1  UNL1       -0.0585
     13 C           6.4548    0.4167    0.0000 C.3     1  UNL1       -0.0621
     14 C           4.1682   -1.6468    0.0000 C.3     1  UNL1       -0.0430
     15 C           2.0000   -1.6449    0.0000 C.3     1  UNL1       -0.0435
     16 H           5.3888    1.1944    0.0000 H       1  UNL1        0.0312
     17 H           3.5950   -0.9668    0.0000 H       1  UNL1        0.0274
     18 H           4.2668   -1.4532    0.0000 H       1  UNL1        0.0274
     19 H           3.4563    2.2634    0.0000 H       1  UNL1        0.0271
     20 H           2.7850    1.7757    0.0000 H       1  UNL1        0.0271
     21 H           5.6015    0.7215    0.0000 H       1  UNL1        0.0301
     22 H           4.9980    1.7757    0.0000 H       1  UNL1        0.0268
     23 H           4.3267    2.2634    0.0000 H       1  UNL1        0.0268
     24 H           1.9687    0.6456    0.0000 H       1  UNL1        0.0316
     25 H           1.7138   -0.1437    0.0000 H       1  UNL1        0.0316
     26 H           5.1306   -1.4525    0.0000 H       1  UNL1        0.0268
     27 H           5.8016   -0.9649    0.0000 H       1  UNL1        0.0268
     28 H           2.6379    1.7851    0.0000 H       1  UNL1        0.0235
     29 H           1.7719    1.6479    0.0000 H       1  UNL1        0.0235
     30 H           1.9090    0.7819    0.0000 H       1  UNL1        0.0235
     31 H           6.6454   -0.1733    0.0000 H       1  UNL1        0.0233
     32 H           7.0448    0.6072    0.0000 H       1  UNL1        0.0233
     33 H           6.2642    1.0067    0.0000 H       1  UNL1        0.0233
     34 H           3.6660   -2.0103    0.0000 H       1  UNL1        0.0275
     35 H           4.5318   -2.1490    0.0000 H       1  UNL1        0.0275
     36 H           4.6705   -1.2832    0.0000 H       1  UNL1        0.0275
     37 H           1.4984   -1.2804    0.0000 H       1  UNL1        0.0274
     38 H           1.6356   -2.1465    0.0000 H       1  UNL1        0.0274
     39 H           2.5016   -2.0093    0.0000 H       1  UNL1        0.0274
@<TRIPOS>BOND
     1     1     2    1
     2     1     3    1
     3     1     4    1
     4     1     8    1
     5     2     5    1
     6     2     9    1
     7     2    12    1
     8     3     6    1
     9     3     7    1
    10     3    16    1
    11     4    10    1
    12     4    17    1
    13     4    18    1
    14     5     7    1
    15     5    19    1
    16     5    20    1
    17     6    10    1
    18     6    13    1
    19     6    21    1
    20     7    22    1
    21     7    23    1
    22     8    11    2
    23     8    14    1
    24     9    11    1
    25     9    24    1
    26     9    25    1
    27    10    26    1
    28    10    27    1
    29    11    15    1
    30    12    28    1
    31    12    29    1
    32    12    30    1
    33    13    31    1
    34    13    32    1
    35    13    33    1
    36    14    34    1
    37    14    35    1
    38    14    36    1
    39    15    37    1
    40    15    38    1
    41    15    39    1
