@<TRIPOS>MOLECULE
IMPHY011526
 89 94 0 0 0
SMALL
GASTEIGER

@<TRIPOS>ATOM
      1 O           3.6747   -1.2170    0.0000 O.3     1  UNL1       -0.3730
      2 O           5.7330   -2.5429    0.0000 O.3     1  UNL1       -0.3656
      3 O           6.4116    1.9604    0.0000 O.3     1  UNL1       -0.4574
      4 O           2.8718    1.9741    0.0000 O.3     1  UNL1       -0.4608
      5 O           8.9879    0.4290    0.0000 O.3     1  UNL1       -0.4679
      6 O           8.1219   -1.0710    0.0000 O.2     1  UNL1       -0.2509
      7 O          10.4277   -4.3030    0.0000 O.3     1  UNL1       -0.4282
      8 O           5.5630    3.4703    0.0000 O.2     1  UNL1       -0.2453
      9 O           3.7320    3.4774    0.0000 O.2     1  UNL1       -0.2512
     10 O           8.7635   -4.9402    0.0000 O.2     1  UNL1       -0.2452
     11 O          11.8136   -3.1828    0.0000 O.3     1  UNL1       -0.3545
     12 C           5.5238    0.4290    0.0000 C.3     1  UNL1        0.0152
     13 C           4.6578   -0.0710    0.0000 C.3     1  UNL1        0.0077
     14 C           6.3898   -1.0710    0.0000 C.3     1  UNL1        0.0242
     15 C           6.3898   -0.0710    0.0000 C.3     1  UNL1       -0.0102
     16 C           3.7478    0.4358    0.0000 C.3     1  UNL1        0.0343
     17 C           4.6578   -1.0710    0.0000 C.3     1  UNL1        0.0897
     18 C           5.5238   -1.5710    0.0000 C.3     1  UNL1        0.0952
     19 C           5.5399    1.4705    0.0000 C.3     1  UNL1        0.1127
     20 C           3.7398    1.4774    0.0000 C.3     1  UNL1        0.1142
     21 C           7.1268   -1.7381    0.0000 C.2     1  UNL1       -0.0329
     22 C           3.1610   -0.3663    0.0000 C.3     1  UNL1        0.0572
     23 C           4.6418    1.9982    0.0000 C.3     1  UNL1        0.0227
     24 C           6.7217   -2.6459    0.0000 C.3     1  UNL1        0.0819
     25 C           6.3898    0.9290    0.0000 C.3     1  UNL1       -0.0555
     26 C           7.2558    0.4290    0.0000 C.3     1  UNL1        0.0492
     27 C           7.2558   -0.5710    0.0000 C.3     1  UNL1       -0.0530
     28 C           2.7478    0.4243    0.0000 C.3     1  UNL1       -0.0537
     29 C           8.1093   -1.8448    0.0000 C.2     1  UNL1       -0.0626
     30 C           7.4572   -3.3059    0.0000 C.3     1  UNL1       -0.0119
     31 C           8.3130   -2.8118    0.0000 C.3     1  UNL1        0.0146
     32 C           8.1219   -0.0710    0.0000 C.2     1  UNL1        0.3071
     33 C           8.7803   -1.1034    0.0000 C.3     1  UNL1       -0.0429
     34 C           9.2262   -3.2193    0.0000 C.2     1  UNL1        0.0457
     35 C           6.4232    2.9604    0.0000 C.2     1  UNL1        0.3348
     36 C           2.8680    2.9741    0.0000 C.2     1  UNL1        0.3042
     37 C          10.0927   -2.7200    0.0000 C.2     1  UNL1       -0.0060
     38 C           9.4333   -4.1976    0.0000 C.2     1  UNL1        0.3380
     39 C           7.2949    3.4503    0.0000 C.2     1  UNL1        0.0293
     40 C           2.0000    3.4707    0.0000 C.3     1  UNL1        0.0332
     41 C          10.8353   -3.3898    0.0000 C.3     1  UNL1        0.2232
     42 C           9.8539   -0.0710    0.0000 C.3     1  UNL1        0.0817
     43 C           8.1551    2.9403    0.0000 C.3     1  UNL1       -0.0333
     44 C           7.3065    4.4502    0.0000 C.2     1  UNL1       -0.0774
     45 C           8.1782    4.9402    0.0000 C.3     1  UNL1       -0.0461
     46 H           4.6578    0.7790    0.0000 H       1  UNL1        0.0340
     47 H           6.9268   -0.3810    0.0000 H       1  UNL1        0.0322
     48 H           4.4988   -1.9060    0.0000 H       1  UNL1        0.0625
     49 H           4.8368   -2.0715    0.0000 H       1  UNL1        0.0631
     50 H           5.5458    2.0904    0.0000 H       1  UNL1        0.0741
     51 H           3.7386    2.0974    0.0000 H       1  UNL1        0.0741
     52 H           2.7131    0.0625    0.0000 H       1  UNL1        0.0567
     53 H           2.6770   -0.7538    0.0000 H       1  UNL1        0.0567
     54 H           5.0428    2.4711    0.0000 H       1  UNL1        0.0337
     55 H           4.2445    2.4742    0.0000 H       1  UNL1        0.0337
     56 H           6.3770   -3.4229    0.0000 H       1  UNL1        0.0644
     57 H           6.6998    0.3920    0.0000 H       1  UNL1        0.0236
     58 H           6.9268    1.2390    0.0000 H       1  UNL1        0.0236
     59 H           6.0798    1.4659    0.0000 H       1  UNL1        0.0236
     60 H           7.6544    0.9039    0.0000 H       1  UNL1        0.0381
     61 H           6.8573    0.9039    0.0000 H       1  UNL1        0.0381
     62 H           7.5658   -1.1080    0.0000 H       1  UNL1        0.0239
     63 H           7.7928   -0.2610    0.0000 H       1  UNL1        0.0239
     64 H           6.9458   -0.0341    0.0000 H       1  UNL1        0.0239
     65 H           2.7407    1.0442    0.0000 H       1  UNL1        0.0237
     66 H           2.1279    0.4171    0.0000 H       1  UNL1        0.0237
     67 H           2.7550   -0.1957    0.0000 H       1  UNL1        0.0237
     68 H           6.9970   -3.7213    0.0000 H       1  UNL1        0.0302
     69 H           7.8220   -3.8072    0.0000 H       1  UNL1        0.0302
     70 H           8.3452   -3.4309    0.0000 H       1  UNL1        0.0397
     71 H           9.2400   -1.5195    0.0000 H       1  UNL1        0.0275
     72 H           9.1964   -0.6437    0.0000 H       1  UNL1        0.0275
     73 H           8.3206   -0.6874    0.0000 H       1  UNL1        0.0275
     74 H          10.1580   -2.1035    0.0000 H       1  UNL1        0.0639
     75 H           2.3079    4.0088    0.0000 H       1  UNL1        0.0342
     76 H           1.4619    3.7786    0.0000 H       1  UNL1        0.0342
     77 H           1.6921    2.9326    0.0000 H       1  UNL1        0.0342
     78 H          10.9962   -2.7911    0.0000 H       1  UNL1        0.1105
     79 H           9.5439   -0.6080    0.0000 H       1  UNL1        0.0661
     80 H          10.3909   -0.3810    0.0000 H       1  UNL1        0.0661
     81 H          10.1639    0.4659    0.0000 H       1  UNL1        0.0661
     82 H           7.8389    2.4070    0.0000 H       1  UNL1        0.0280
     83 H           8.6884    2.6241    0.0000 H       1  UNL1        0.0280
     84 H           8.4713    3.4736    0.0000 H       1  UNL1        0.0280
     85 H           6.7732    4.7664    0.0000 H       1  UNL1        0.0574
     86 H          12.2281   -3.6439    0.0000 H       1  UNL1        0.2139
     87 H           8.4820    4.3997    0.0000 H       1  UNL1        0.0272
     88 H           8.7187    5.2440    0.0000 H       1  UNL1        0.0272
     89 H           7.8745    5.4807    0.0000 H       1  UNL1        0.0272
@<TRIPOS>BOND
     1     1    17    1
     2     1    22    1
     3     2    18    1
     4     2    24    1
     5    19     3    1
     6     3    35    1
     7    20     4    1
     8     4    36    1
     9     5    32    1
    10     5    42    1
    11     6    32    2
    12     7    38    1
    13     7    41    1
    14     8    35    2
    15     9    36    2
    16    10    38    2
    17    11    41    1
    18    11    86    1
    19    12    13    1
    20    12    15    1
    21    12    19    1
    22    12    25    1
    23    13    16    1
    24    13    17    1
    25    13    46    1
    26    14    15    1
    27    14    18    1
    28    14    21    1
    29    14    27    1
    30    15    26    1
    31    15    47    1
    32    16    20    1
    33    16    22    1
    34    16    28    1
    35    17    18    1
    36    17    48    1
    37    18    49    1
    38    19    23    1
    39    19    50    1
    40    20    23    1
    41    20    51    1
    42    21    24    1
    43    21    29    2
    44    22    52    1
    45    22    53    1
    46    23    54    1
    47    23    55    1
    48    24    30    1
    49    24    56    1
    50    25    57    1
    51    25    58    1
    52    25    59    1
    53    26    32    1
    54    26    60    1
    55    26    61    1
    56    27    62    1
    57    27    63    1
    58    27    64    1
    59    28    65    1
    60    28    66    1
    61    28    67    1
    62    29    31    1
    63    29    33    1
    64    30    31    1
    65    30    68    1
    66    30    69    1
    67    31    34    1
    68    31    70    1
    69    33    71    1
    70    33    72    1
    71    33    73    1
    72    34    37    2
    73    34    38    1
    74    35    39    1
    75    36    40    1
    76    37    41    1
    77    37    74    1
    78    39    43    1
    79    39    44    2
    80    40    75    1
    81    40    76    1
    82    40    77    1
    83    41    78    1
    84    42    79    1
    85    42    80    1
    86    42    81    1
    87    43    82    1
    88    43    83    1
    89    43    84    1
    90    44    45    1
    91    44    85    1
    92    45    87    1
    93    45    88    1
    94    45    89    1
