@<TRIPOS>MOLECULE
IMPHY000189
 15 14 0 0 0
SMALL
GASTEIGER

@<TRIPOS>ATOM
      1 O           5.4641    0.7500    0.0000 O.3     1  UNL1       -0.4775
      2 O           4.5981   -0.7500    0.0000 O.2     1  UNL1       -0.2458
      3 C           2.8660    0.2500    0.0000 C.2     1  UNL1       -0.0690
      4 C           2.0000    0.7500    0.0000 C.3     1  UNL1       -0.0435
      5 C           2.8660   -0.7500    0.0000 C.3     1  UNL1       -0.0435
      6 C           3.7320    0.7500    0.0000 C.2     1  UNL1        0.0211
      7 C           4.5981    0.2500    0.0000 C.2     1  UNL1        0.3295
      8 H           2.3100    1.2869    0.0000 H       1  UNL1        0.0274
      9 H           1.4631    1.0600    0.0000 H       1  UNL1        0.0274
     10 H           1.6900    0.2131    0.0000 H       1  UNL1        0.0274
     11 H           2.2460   -0.7500    0.0000 H       1  UNL1        0.0274
     12 H           2.8660   -1.3700    0.0000 H       1  UNL1        0.0274
     13 H           3.4860   -0.7500    0.0000 H       1  UNL1        0.0274
     14 H           3.7320    1.3700    0.0000 H       1  UNL1        0.0688
     15 H           6.0010    0.4400    0.0000 H       1  UNL1        0.2954
@<TRIPOS>BOND
     1     1     7    1
     2     1    15    1
     3     2     7    2
     4     3     4    1
     5     3     5    1
     6     3     6    2
     7     4     8    1
     8     4     9    1
     9     4    10    1
    10     5    11    1
    11     5    12    1
    12     5    13    1
    13     6     7    1
    14     6    14    1
