@<TRIPOS>MOLECULE
IMPHY017780
 46 49 0 0 0
SMALL
GASTEIGER

@<TRIPOS>ATOM
      1 O           2.3045    0.3147    0.0000 O.3     1  UNL1       -0.4914
      2 O           2.9339    2.2574    0.0000 O.3     1  UNL1       -0.5031
      3 O          10.5776   -0.8652    0.0000 O.3     1  UNL1       -0.4914
      4 O           9.2070   -2.3874    0.0000 O.3     1  UNL1       -0.5033
      5 N           6.2908    0.9437    0.0000 N.pl3   1  UNL1       -0.3717
      6 C           6.5998   -0.0073    0.0000 C.3     1  UNL1        0.1327
      7 C           6.9599    1.6869    0.0000 C.3     1  UNL1        0.0964
      8 C           5.7940   -0.5895    0.0000 C.3     1  UNL1        0.0398
      9 C           5.2967    0.9412    0.0000 C.ar    1  UNL1        0.1534
     10 C           7.5779   -0.2152    0.0000 C.ar    1  UNL1        0.0218
     11 C           4.9903   -0.0045    0.0000 C.ar    1  UNL1        0.0279
     12 C           7.9380    1.4790    0.0000 C.3     1  UNL1        0.0269
     13 C           5.9817    1.8948    0.0000 C.3     1  UNL1        0.0820
     14 C           8.2470    0.5279    0.0000 C.ar    1  UNL1       -0.0287
     15 C           4.6151    1.7207    0.0000 C.ar    1  UNL1        0.0490
     16 C           3.9811   -0.2363    0.0000 C.ar    1  UNL1       -0.0069
     17 C           7.8845   -1.2107    0.0000 C.ar    1  UNL1       -0.0070
     18 C           9.2691    0.3271    0.0000 C.ar    1  UNL1       -0.0125
     19 C           3.6008    1.5123    0.0000 C.ar    1  UNL1        0.1646
     20 C           3.2817    0.5272    0.0000 C.ar    1  UNL1        0.1619
     21 C           8.9017   -1.4351    0.0000 C.ar    1  UNL1        0.1589
     22 C           9.5986   -0.6611    0.0000 C.ar    1  UNL1        0.1615
     23 C           2.0000   -0.6378    0.0000 C.3     1  UNL1        0.0790
     24 C          11.2438   -0.1195    0.0000 C.3     1  UNL1        0.0790
     25 H           6.7279   -0.6139    0.0000 H       1  UNL1        0.1064
     26 H           7.1921    2.2617    0.0000 H       1  UNL1        0.0972
     27 H           6.4341    2.0154    0.0000 H       1  UNL1        0.0972
     28 H           5.3785   -1.0497    0.0000 H       1  UNL1        0.0382
     29 H           6.2080   -1.0511    0.0000 H       1  UNL1        0.0382
     30 H           8.5520    1.5653    0.0000 H       1  UNL1        0.0373
     31 H           7.9597    2.0986    0.0000 H       1  UNL1        0.0373
     32 H           6.5714    2.0864    0.0000 H       1  UNL1        0.0931
     33 H           5.7902    2.4844    0.0000 H       1  UNL1        0.0931
     34 H           5.3921    1.7032    0.0000 H       1  UNL1        0.0931
     35 H           4.8130    2.3082    0.0000 H       1  UNL1        0.0719
     36 H           3.7969   -0.8283    0.0000 H       1  UNL1        0.0660
     37 H           7.4643   -1.6666    0.0000 H       1  UNL1        0.0660
     38 H           9.6786    0.7926    0.0000 H       1  UNL1        0.0658
     39 H           3.1272    2.8465    0.0000 H       1  UNL1        0.2923
     40 H           8.7904   -2.8465    0.0000 H       1  UNL1        0.2923
     41 H           1.4095   -0.4490    0.0000 H       1  UNL1        0.0660
     42 H           1.8112   -1.2283    0.0000 H       1  UNL1        0.0660
     43 H           2.5906   -0.8266    0.0000 H       1  UNL1        0.0660
     44 H          11.7062   -0.5326    0.0000 H       1  UNL1        0.0660
     45 H          11.6569    0.3429    0.0000 H       1  UNL1        0.0660
     46 H          10.7815    0.2936    0.0000 H       1  UNL1        0.0660
@<TRIPOS>UNITY_ATOM_ATTR
5 1
charge 1
@<TRIPOS>BOND
     1     1    20    1
     2     1    23    1
     3     2    19    1
     4     2    39    1
     5     3    22    1
     6     3    24    1
     7     4    21    1
     8     4    40    1
     9     5     6    1
    10     5     7    1
    11     5     9    1
    12     5    13    1
    13     6     8    1
    14     6    10    1
    15     6    25    1
    16     7    12    1
    17     7    26    1
    18     7    27    1
    19     8    11    1
    20     8    28    1
    21     8    29    1
    22     9    11   ar
    23     9    15   ar
    24    10    14   ar
    25    10    17   ar
    26    11    16   ar
    27    12    14    1
    28    12    30    1
    29    12    31    1
    30    13    32    1
    31    13    33    1
    32    13    34    1
    33    14    18   ar
    34    15    19   ar
    35    15    35    1
    36    16    20   ar
    37    16    36    1
    38    17    21   ar
    39    17    37    1
    40    18    22   ar
    41    18    38    1
    42    19    20   ar
    43    21    22   ar
    44    23    41    1
    45    23    42    1
    46    23    43    1
    47    24    44    1
    48    24    45    1
    49    24    46    1
