@<TRIPOS>MOLECULE
IMPHY000254
 42 42 0 0 0
SMALL
GASTEIGER

@<TRIPOS>ATOM
      1 O           4.7320    0.0000    0.0000 O.3     1  UNL1       -0.3886
      2 O           3.7320    3.0000    0.0000 O.3     1  UNL1       -0.3875
      3 O           2.0000   -3.0000    0.0000 O.2     1  UNL1       -0.2924
      4 C           3.7320   -1.0000    0.0000 C.3     1  UNL1       -0.0020
      5 C           3.7320    0.0000    0.0000 C.3     1  UNL1        0.0669
      6 C           3.7320    1.0000    0.0000 C.3     1  UNL1       -0.0213
      7 C           2.8660   -1.5000    0.0000 C.3     1  UNL1        0.0158
      8 C           4.5981   -1.5000    0.0000 C.3     1  UNL1       -0.0283
      9 C           2.7320    0.0000    0.0000 C.3     1  UNL1       -0.0358
     10 C           4.5981    1.5000    0.0000 C.3     1  UNL1       -0.0204
     11 C           2.8660   -2.5000    0.0000 C.2     1  UNL1        0.1590
     12 C           4.5981   -2.5000    0.0000 C.2     1  UNL1       -0.0774
     13 C           3.7320   -3.0000    0.0000 C.2     1  UNL1       -0.0120
     14 C           4.5981    2.5000    0.0000 C.3     1  UNL1        0.0758
     15 C           3.7320   -4.0000    0.0000 C.3     1  UNL1       -0.0367
     16 C           5.4641    3.0000    0.0000 C.2     1  UNL1       -0.0516
     17 C           5.4641    4.0000    0.0000 C.3     1  UNL1       -0.0416
     18 C           6.3301    2.5000    0.0000 C.2     1  UNL1       -0.0973
     19 H           4.2690   -0.6900    0.0000 H       1  UNL1        0.0335
     20 H           3.5200    1.5826    0.0000 H       1  UNL1        0.0294
     21 H           3.1215    0.8923    0.0000 H       1  UNL1        0.0294
     22 H           2.6540   -0.9174    0.0000 H       1  UNL1        0.0349
     23 H           2.2554   -1.6077    0.0000 H       1  UNL1        0.0349
     24 H           5.2087   -1.6077    0.0000 H       1  UNL1        0.0311
     25 H           4.8101   -0.9174    0.0000 H       1  UNL1        0.0311
     26 H           2.7320    0.6200    0.0000 H       1  UNL1        0.0257
     27 H           2.1120    0.0000    0.0000 H       1  UNL1        0.0257
     28 H           2.7320   -0.6200    0.0000 H       1  UNL1        0.0257
     29 H           4.8101    0.9174    0.0000 H       1  UNL1        0.0294
     30 H           5.2087    1.6077    0.0000 H       1  UNL1        0.0294
     31 H           5.1350   -2.8100    0.0000 H       1  UNL1        0.0576
     32 H           4.5981    3.1200    0.0000 H       1  UNL1        0.0640
     33 H           5.0420    0.5369    0.0000 H       1  UNL1        0.2102
     34 H           3.1120   -4.0000    0.0000 H       1  UNL1        0.0278
     35 H           3.7320   -4.6200    0.0000 H       1  UNL1        0.0278
     36 H           4.3520   -4.0000    0.0000 H       1  UNL1        0.0278
     37 H           3.7320    3.6200    0.0000 H       1  UNL1        0.2102
     38 H           6.0841    4.0000    0.0000 H       1  UNL1        0.0275
     39 H           5.4641    4.6200    0.0000 H       1  UNL1        0.0275
     40 H           4.8441    4.0000    0.0000 H       1  UNL1        0.0275
     41 H           6.3301    1.8800    0.0000 H       1  UNL1        0.0535
     42 H           6.8671    2.8100    0.0000 H       1  UNL1        0.0535
@<TRIPOS>BOND
     1     5     1    1
     2     1    33    1
     3     2    14    1
     4     2    37    1
     5     3    11    2
     6     4     5    1
     7     4     7    1
     8     4     8    1
     9     4    19    1
    10     5     6    1
    11     5     9    1
    12     6    10    1
    13     6    20    1
    14     6    21    1
    15     7    11    1
    16     7    22    1
    17     7    23    1
    18     8    12    1
    19     8    24    1
    20     8    25    1
    21     9    26    1
    22     9    27    1
    23     9    28    1
    24    10    14    1
    25    10    29    1
    26    10    30    1
    27    11    13    1
    28    12    13    2
    29    12    31    1
    30    13    15    1
    31    14    16    1
    32    14    32    1
    33    15    34    1
    34    15    35    1
    35    15    36    1
    36    16    17    1
    37    16    18    2
    38    17    38    1
    39    17    39    1
    40    17    40    1
    41    18    41    1
    42    18    42    1
