@<TRIPOS>MOLECULE
IMPHY017693
 48 49 0 0 0
SMALL
GASTEIGER

@<TRIPOS>ATOM
      1 O           2.5369    0.2500    0.0000 O.3     1  UNL1       -0.5065
      2 C           5.1350    1.7500    0.0000 C.3     1  UNL1       -0.0318
      3 C           4.2690    1.2500    0.0000 C.3     1  UNL1       -0.0091
      4 C           3.4030    1.7500    0.0000 C.3     1  UNL1       -0.0432
      5 C           5.1350    2.7500    0.0000 C.3     1  UNL1       -0.0492
      6 C           3.4030    2.7500    0.0000 C.3     1  UNL1       -0.0433
      7 C           4.2690    3.2500    0.0000 C.3     1  UNL1       -0.0502
      8 C           6.0010    1.2500    0.0000 C.3     1  UNL1       -0.0433
      9 C           4.2690    0.2500    0.0000 C.ar    1  UNL1       -0.0023
     10 C           2.5369    3.2500    0.0000 C.3     1  UNL1       -0.0624
     11 C           6.8671    1.7500    0.0000 C.3     1  UNL1       -0.0624
     12 C           6.0010    0.2500    0.0000 C.3     1  UNL1       -0.0624
     13 C           5.1350   -0.2500    0.0000 C.ar    1  UNL1       -0.0514
     14 C           3.4030   -0.2500    0.0000 C.ar    1  UNL1        0.1203
     15 C           5.1350   -1.2500    0.0000 C.ar    1  UNL1       -0.0432
     16 C           3.4030   -1.2500    0.0000 C.ar    1  UNL1       -0.0196
     17 C           4.2690   -1.7500    0.0000 C.ar    1  UNL1       -0.0548
     18 C           6.0010   -1.7500    0.0000 C.3     1  UNL1       -0.0097
     19 C           6.0010   -2.7500    0.0000 C.2     1  UNL1       -0.0868
     20 C           6.8671   -3.2500    0.0000 C.2     1  UNL1       -0.1023
     21 H           5.6720    2.0600    0.0000 H       1  UNL1        0.0309
     22 H           4.8059    0.9400    0.0000 H       1  UNL1        0.0353
     23 H           2.7924    1.8577    0.0000 H       1  UNL1        0.0274
     24 H           3.1909    1.1674    0.0000 H       1  UNL1        0.0274
     25 H           5.7456    2.6423    0.0000 H       1  UNL1        0.0268
     26 H           5.3471    3.3326    0.0000 H       1  UNL1        0.0268
     27 H           3.4030    3.3700    0.0000 H       1  UNL1        0.0298
     28 H           4.6675    3.7250    0.0000 H       1  UNL1        0.0268
     29 H           3.8705    3.7250    0.0000 H       1  UNL1        0.0268
     30 H           6.5380    0.9400    0.0000 H       1  UNL1        0.0298
     31 H           2.8469    3.7869    0.0000 H       1  UNL1        0.0232
     32 H           2.0000    3.5600    0.0000 H       1  UNL1        0.0232
     33 H           2.2269    2.7131    0.0000 H       1  UNL1        0.0232
     34 H           7.1771    1.2131    0.0000 H       1  UNL1        0.0232
     35 H           7.4040    2.0600    0.0000 H       1  UNL1        0.0232
     36 H           6.5571    2.2869    0.0000 H       1  UNL1        0.0232
     37 H           5.3810    0.2500    0.0000 H       1  UNL1        0.0232
     38 H           6.0010   -0.3700    0.0000 H       1  UNL1        0.0232
     39 H           6.6210    0.2500    0.0000 H       1  UNL1        0.0232
     40 H           5.6720    0.0600    0.0000 H       1  UNL1        0.0624
     41 H           2.8660   -1.5600    0.0000 H       1  UNL1        0.0654
     42 H           4.2690   -2.3700    0.0000 H       1  UNL1        0.0622
     43 H           6.6116   -1.8577    0.0000 H       1  UNL1        0.0355
     44 H           6.2131   -1.1674    0.0000 H       1  UNL1        0.0355
     45 H           2.0000   -0.0600    0.0000 H       1  UNL1        0.2921
     46 H           5.4641   -3.0600    0.0000 H       1  UNL1        0.0570
     47 H           6.8671   -3.8700    0.0000 H       1  UNL1        0.0532
     48 H           7.4040   -2.9400    0.0000 H       1  UNL1        0.0532
@<TRIPOS>BOND
     1     1    14    1
     2     1    45    1
     3     2     3    1
     4     2     5    1
     5     2     8    1
     6     2    21    1
     7     3     4    1
     8     3     9    1
     9     3    22    1
    10     4     6    1
    11     4    23    1
    12     4    24    1
    13     5     7    1
    14     5    25    1
    15     5    26    1
    16     6     7    1
    17     6    10    1
    18     6    27    1
    19     7    28    1
    20     7    29    1
    21     8    11    1
    22     8    12    1
    23     8    30    1
    24     9    13   ar
    25     9    14   ar
    26    10    31    1
    27    10    32    1
    28    10    33    1
    29    11    34    1
    30    11    35    1
    31    11    36    1
    32    12    37    1
    33    12    38    1
    34    12    39    1
    35    13    15   ar
    36    13    40    1
    37    14    16   ar
    38    15    17   ar
    39    15    18    1
    40    16    17   ar
    41    16    41    1
    42    17    42    1
    43    18    19    1
    44    18    43    1
    45    18    44    1
    46    19    20    2
    47    19    46    1
    48    20    47    1
    49    20    48    1
