@<TRIPOS>MOLECULE
IMPHY001660
 41 44 0 0 0
SMALL
GASTEIGER

@<TRIPOS>ATOM
      1 O          10.4366    0.7056    0.0000 O.3     1  UNL1       -0.4814
      2 O           6.9006    0.7334    0.0000 O.2     1  UNL1       -0.4538
      3 O           8.6605   -2.3013    0.0000 O.3     1  UNL1       -0.5058
      4 O           6.9121   -2.3359    0.0000 O.2     1  UNL1       -0.2869
      5 O           2.5381    2.2329    0.0000 O.3     1  UNL1       -0.5068
      6 C          10.4446    1.7472    0.0000 C.3     1  UNL1        0.1235
      7 C           8.6605    0.6987    0.0000 C.ar    1  UNL1        0.0597
      8 C           9.5266    0.1987    0.0000 C.ar    1  UNL1        0.1359
      9 C           9.5425    2.2680    0.0000 C.2     1  UNL1       -0.0408
     10 C           7.7945    0.1987    0.0000 C.ar    1  UNL1        0.1534
     11 C           8.6445    1.7402    0.0000 C.2     1  UNL1       -0.0478
     12 C          10.9479    2.6113    0.0000 C.3     1  UNL1       -0.0215
     13 C          11.4446    1.7433    0.0000 C.3     1  UNL1       -0.0215
     14 C           7.7945   -0.8013    0.0000 C.ar    1  UNL1        0.1061
     15 C           9.5266   -0.8013    0.0000 C.ar    1  UNL1        0.0231
     16 C           8.6605   -1.3013    0.0000 C.ar    1  UNL1        0.1347
     17 C           6.9006   -1.3359    0.0000 C.ar    1  UNL1        0.1966
     18 C           5.9945    0.2195    0.0000 C.ar    1  UNL1        0.1393
     19 C           5.9945   -0.8221    0.0000 C.ar    1  UNL1        0.0288
     20 C           5.1304    0.7229    0.0000 C.ar    1  UNL1        0.0176
     21 C           5.1343    1.7229    0.0000 C.ar    1  UNL1       -0.0476
     22 C           4.2625    0.2262    0.0000 C.ar    1  UNL1       -0.0476
     23 C           4.2702    2.2262    0.0000 C.ar    1  UNL1       -0.0195
     24 C           3.3984    0.7296    0.0000 C.ar    1  UNL1       -0.0195
     25 C           3.4022    1.7296    0.0000 C.ar    1  UNL1        0.1169
     26 H           9.5401    2.8880    0.0000 H       1  UNL1        0.0611
     27 H           8.1040    2.0440    0.0000 H       1  UNL1        0.0624
     28 H          11.4837    2.2992    0.0000 H       1  UNL1        0.0271
     29 H          11.2600    3.1470    0.0000 H       1  UNL1        0.0271
     30 H          11.4422    1.1233    0.0000 H       1  UNL1        0.0271
     31 H          12.0646    1.7409    0.0000 H       1  UNL1        0.0271
     32 H          11.4470    2.3633    0.0000 H       1  UNL1        0.0271
     33 H          10.4122    2.9233    0.0000 H       1  UNL1        0.0271
     34 H          10.0635   -1.1113    0.0000 H       1  UNL1        0.0691
     35 H           5.4588   -1.1342    0.0000 H       1  UNL1        0.0693
     36 H           9.1975   -2.6113    0.0000 H       1  UNL1        0.2922
     37 H           5.6724    2.0308    0.0000 H       1  UNL1        0.0626
     38 H           4.2601   -0.3938    0.0000 H       1  UNL1        0.0626
     39 H           4.2726    2.8462    0.0000 H       1  UNL1        0.0654
     40 H           2.8602    0.4216    0.0000 H       1  UNL1        0.0654
     41 H           2.0000    1.9250    0.0000 H       1  UNL1        0.2921
@<TRIPOS>BOND
     1     1     6    1
     2     1     8    1
     3     2    10   ar
     4     2    18   ar
     5     3    16    1
     6     3    36    1
     7     4    17    2
     8     5    25    1
     9     5    41    1
    10     6     9    1
    11     6    12    1
    12     6    13    1
    13     7     8   ar
    14     7    10   ar
    15     7    11    1
    16     8    15   ar
    17     9    11    2
    18     9    26    1
    19    10    14   ar
    20    11    27    1
    21    12    28    1
    22    12    29    1
    23    12    33    1
    24    13    30    1
    25    13    31    1
    26    13    32    1
    27    14    16   ar
    28    14    17   ar
    29    15    16   ar
    30    15    34    1
    31    17    19   ar
    32    18    19   ar
    33    18    20    1
    34    19    35    1
    35    20    21   ar
    36    20    22   ar
    37    21    23   ar
    38    21    37    1
    39    22    24   ar
    40    22    38    1
    41    23    25   ar
    42    23    39    1
    43    24    25   ar
    44    24    40    1
