@<TRIPOS>MOLECULE
IMPHY003482
 18 18 0 0 0
SMALL
GASTEIGER

@<TRIPOS>ATOM
      1 O           2.8660   -2.0000    0.0000 O.3     1  UNL1       -0.4951
      2 O           3.7320    2.5000    0.0000 O.2     1  UNL1       -0.2957
      3 C           2.8660   -1.0000    0.0000 C.ar    1  UNL1        0.1201
      4 C           2.8660    1.0000    0.0000 C.ar    1  UNL1        0.0144
      5 C           3.7320   -0.5000    0.0000 C.ar    1  UNL1       -0.0193
      6 C           2.0000   -0.5000    0.0000 C.ar    1  UNL1       -0.0193
      7 C           3.7320    0.5000    0.0000 C.ar    1  UNL1       -0.0481
      8 C           2.0000    0.5000    0.0000 C.ar    1  UNL1       -0.0481
      9 C           2.8660    2.0000    0.0000 C.2     1  UNL1        0.1502
     10 C           2.0000   -2.5000    0.0000 C.3     1  UNL1        0.0788
     11 H           4.2690   -0.8100    0.0000 H       1  UNL1        0.0654
     12 H           1.4631   -0.8100    0.0000 H       1  UNL1        0.0654
     13 H           4.2690    0.8100    0.0000 H       1  UNL1        0.0626
     14 H           1.4631    0.8100    0.0000 H       1  UNL1        0.0626
     15 H           2.3291    2.3100    0.0000 H       1  UNL1        0.1081
     16 H           1.6900   -1.9631    0.0000 H       1  UNL1        0.0660
     17 H           1.4631   -2.8100    0.0000 H       1  UNL1        0.0660
     18 H           2.3100   -3.0369    0.0000 H       1  UNL1        0.0660
@<TRIPOS>BOND
     1     1     3    1
     2     1    10    1
     3     2     9    2
     4     3     5   ar
     5     3     6   ar
     6     4     7   ar
     7     4     8   ar
     8     4     9    1
     9     5     7   ar
    10     5    11    1
    11     6     8   ar
    12     6    12    1
    13     7    13    1
    14     8    14    1
    15     9    15    1
    16    10    16    1
    17    10    17    1
    18    10    18    1
