@<TRIPOS>MOLECULE
IMPHY000451
 27 29 0 0 0
SMALL
GASTEIGER

@<TRIPOS>ATOM
      1 C          -7.7942    3.5000    0.0000 C.3     1  UNL1        0.0029
      2 C          -6.0622    0.5000    0.0000 C.3     1  UNL1        0.0279
      3 C          -8.6603    3.0000    0.0000 C.3     1  UNL1        0.0174
      4 C          -6.9282    3.0000    0.0000 C.3     1  UNL1        0.0174
      5 C          -6.9282    0.0000    0.0000 C.3     1  UNL1        0.0194
      6 C           0.8660   -2.5000    0.0000 C.ar    1  UNL1        0.0038
      7 C           1.7321   -1.0000    0.0000 C.ar    1  UNL1        0.0038
      8 C           1.7321   -3.0000    0.0000 C.ar    1  UNL1        0.0297
      9 C           2.5981   -1.5000    0.0000 C.ar    1  UNL1        0.0297
     10 C          -1.7321   -1.0000    0.0000 C.ar    1  UNL1        0.0198
     11 C          -0.8660   -1.5000    0.0000 C.ar    1  UNL1        0.0205
     12 C          -5.1962    0.0000    0.0000 C.3     1  UNL1        0.1303
     13 C          -8.6603    2.0000    0.0000 C.3     1  UNL1        0.0721
     14 C          -6.9282    2.0000    0.0000 C.3     1  UNL1        0.0721
     15 C          -7.7942    0.5000    0.0000 C.3     1  UNL1        0.0722
     16 C          -0.8660    0.5000    0.0000 C.ar    1  UNL1        0.1154
     17 C           0.8660   -1.5000    0.0000 C.ar    1  UNL1        0.0178
     18 C           2.5981   -2.5000    0.0000 C.ar    1  UNL1        0.1401
     19 C          -1.7321    0.0000    0.0000 C.ar    1  UNL1        0.0943
     20 C           0.0000   -1.0000    0.0000 C.ar    1  UNL1        0.0814
     21 C          -3.4641    0.0000    0.0000 C.2     1  UNL1        0.3540
     22 F           3.4641   -3.0000    0.0000 F       1  UNL1       -0.2042
     23 N          -4.3301    0.5000    0.0000 N.2     1  UNL1       -0.2193
     24 N           0.0000    0.0000    0.0000 N.ar    1  UNL1       -0.2425
     25 N          -2.5981    0.5000    0.0000 N.pl3   1  UNL1       -0.1572
     26 N          -7.7942    1.5000    0.0000 N.3     1  UNL1       -0.2727
     27 O          -3.4641   -1.0000    0.0000 O.2     1  UNL1       -0.2459
@<TRIPOS>BOND
     1     1     3    1
     2     1     4    1
     3     2     5    1
     4     2    12    1
     5     3    13    1
     6     4    14    1
     7     5    15    1
     8     6     8   ar
     9     6    17   ar
    10     7     9   ar
    11     7    17   ar
    12     8    18   ar
    13     9    18   ar
    14    10    11   ar
    15    10    19   ar
    16    11    20   ar
    17    12    23    1
    18    13    26    1
    19    14    26    1
    20    15    26    1
    21    16    19   ar
    22    16    24   ar
    23    17    20    1
    24    18    22    1
    25    19    25    1
    26    20    24   ar
    27    21    23    2
    28    21    25    1
    29    21    27    1
