@<TRIPOS>MOLECULE
IMPHY015494
 141 149 0 0 0
SMALL
GASTEIGER

@<TRIPOS>ATOM
      1 S           3.4030   -5.3206    0.0000 S.O2    1  UNL1        0.2076
      2 O          12.1295    5.0719    0.0000 O.3     1  UNL1       -0.3476
      3 O          11.2855    6.6167    0.0000 O.3     1  UNL1       -0.3475
      4 O           8.4894    5.5812    0.0000 O.3     1  UNL1       -0.3877
      5 O          10.3312   -2.3206    0.0000 O.3     1  UNL1       -0.3449
      6 O           8.5991   -2.3206    0.0000 O.3     1  UNL1       -0.3461
      7 O          10.3312   -4.3206    0.0000 O.3     1  UNL1       -0.3377
      8 O           8.5991   -5.3206    0.0000 O.3     1  UNL1       -0.3401
      9 O           6.8671   -4.3206    0.0000 O.3     1  UNL1       -0.3868
     10 O          11.3017   -2.8260    0.0000 O.3     1  UNL1       -0.3405
     11 O           6.8671   -5.3206    0.0000 O.3     1  UNL1       -0.3404
     12 O          12.3186   -5.2054    0.0000 O.3     1  UNL1       -0.3841
     13 O          13.7744   -3.5887    0.0000 O.3     1  UNL1       -0.3864
     14 O           8.5991   -7.3206    0.0000 O.3     1  UNL1       -0.3841
     15 O           6.8671   -8.3206    0.0000 O.3     1  UNL1       -0.3864
     16 O          13.6811   -1.6001    0.0000 O.3     1  UNL1       -0.3924
     17 O           5.1350   -7.3206    0.0000 O.3     1  UNL1       -0.3865
     18 O           4.2690   -5.8206    0.0000 O.3     1  UNL1       -0.2131
     19 O           2.5369   -4.8206    0.0000 O.3     1  UNL1       -0.2311
     20 O           2.9030   -6.1866    0.0000 O.2     1  UNL1       -0.1181
     21 O           3.9030   -4.4545    0.0000 O.2     1  UNL1       -0.1181
     22 C          11.2577    3.5753    0.0000 C.3     1  UNL1        0.0081
     23 C          11.2697    2.5337    0.0000 C.3     1  UNL1       -0.0206
     24 C          10.3936    4.0786    0.0000 C.3     1  UNL1       -0.0222
     25 C          10.3697    2.0094    0.0000 C.3     1  UNL1       -0.0294
     26 C          10.3975    5.0786    0.0000 C.3     1  UNL1        0.0457
     27 C          11.2654    5.5752    0.0000 C.3     1  UNL1        0.1762
     28 C          10.8955    4.5767    0.0000 C.3     1  UNL1        0.0103
     29 C          10.3571    0.9245    0.0000 C.3     1  UNL1       -0.0252
     30 C          12.1256    4.0719    0.0000 C.3     1  UNL1        0.0575
     31 C           9.4816    3.5753    0.0000 C.3     1  UNL1       -0.0488
     32 C          12.2197    2.0094    0.0000 C.3     1  UNL1       -0.0465
     33 C          11.2947    0.3784    0.0000 C.3     1  UNL1       -0.0278
     34 C           9.4696    2.5337    0.0000 C.3     1  UNL1       -0.0489
     35 C           9.4894    5.5889    0.0000 C.3     1  UNL1        0.0796
     36 C          12.2322    0.9245    0.0000 C.3     1  UNL1       -0.0486
     37 C          12.1338    3.0370    0.0000 C.3     1  UNL1       -0.0587
     38 C          11.3077   -0.7517    0.0000 C.3     1  UNL1       -0.0052
     39 C           9.3677    0.3784    0.0000 C.3     1  UNL1       -0.0447
     40 C           9.4854    6.6306    0.0000 C.3     1  UNL1        0.0299
     41 C           9.4930    1.4278    0.0000 C.3     1  UNL1       -0.0590
     42 C          10.3312   -1.3206    0.0000 C.3     1  UNL1        0.0672
     43 C           9.3546   -0.7517    0.0000 C.3     1  UNL1       -0.0255
     44 C          10.3895    7.1479    0.0000 C.3     1  UNL1        0.0598
     45 C           8.9961    4.7191    0.0000 C.3     1  UNL1       -0.0350
     46 C          12.3077   -0.7440    0.0000 C.3     1  UNL1       -0.0572
     47 C          11.8144   -1.6139    0.0000 C.3     1  UNL1       -0.0572
     48 C           8.6194    7.1306    0.0000 C.2     1  UNL1       -0.0773
     49 C           9.4651   -2.8206    0.0000 C.3     1  UNL1        0.1882
     50 C           8.6194    8.1306    0.0000 C.2     1  UNL1       -0.0792
     51 C           9.4651   -3.8206    0.0000 C.3     1  UNL1        0.1410
     52 C           7.7534    8.6306    0.0000 C.3     1  UNL1       -0.0440
     53 C           9.4854    8.6306    0.0000 C.3     1  UNL1       -0.0440
     54 C           8.5991   -4.3206    0.0000 C.3     1  UNL1        0.1206
     55 C           7.7331   -2.8206    0.0000 C.3     1  UNL1        0.0792
     56 C           7.7331   -3.8206    0.0000 C.3     1  UNL1        0.1073
     57 C          11.1972   -3.8206    0.0000 C.3     1  UNL1        0.1885
     58 C           7.7331   -5.8206    0.0000 C.3     1  UNL1        0.1884
     59 C          12.1107   -4.2273    0.0000 C.3     1  UNL1        0.1341
     60 C          12.7799   -3.4842    0.0000 C.3     1  UNL1        0.1141
     61 C          12.2799   -2.6181    0.0000 C.3     1  UNL1        0.1131
     62 C           7.7331   -6.8206    0.0000 C.3     1  UNL1        0.1341
     63 C           6.8671   -7.3206    0.0000 C.3     1  UNL1        0.1141
     64 C           6.0010   -5.8206    0.0000 C.3     1  UNL1        0.1156
     65 C          12.6866   -1.7046    0.0000 C.3     1  UNL1        0.0730
     66 C           6.0010   -6.8206    0.0000 C.3     1  UNL1        0.1120
     67 C           5.1350   -5.3206    0.0000 C.3     1  UNL1        0.1076
     68 H           9.5571    4.2294    0.0000 H       1  UNL1        0.0312
     69 H           9.6303    1.5901    0.0000 H       1  UNL1        0.0312
     70 H           9.5598    4.9343    0.0000 H       1  UNL1        0.0384
     71 H          10.3999    4.9491    0.0000 H       1  UNL1        0.0323
     72 H          10.3970    4.2080    0.0000 H       1  UNL1        0.0323
     73 H          12.3354    3.4885    0.0000 H       1  UNL1        0.0567
     74 H          12.7366    4.1772    0.0000 H       1  UNL1        0.0567
     75 H           9.2794    4.1613    0.0000 H       1  UNL1        0.0268
     76 H           8.8696    3.4762    0.0000 H       1  UNL1        0.0268
     77 H          12.8317    1.9104    0.0000 H       1  UNL1        0.0271
     78 H          12.4219    2.5955    0.0000 H       1  UNL1        0.0271
     79 H          12.0340   -0.0409    0.0000 H       1  UNL1        0.0312
     80 H           8.8600    2.6468    0.0000 H       1  UNL1        0.0268
     81 H           9.2538    1.9525    0.0000 H       1  UNL1        0.0268
     82 H          12.4480    0.3433    0.0000 H       1  UNL1        0.0268
     83 H          12.8418    1.0376    0.0000 H       1  UNL1        0.0268
     84 H          12.4459    2.5013    0.0000 H       1  UNL1        0.0235
     85 H          12.6696    3.3491    0.0000 H       1  UNL1        0.0235
     86 H          11.8218    3.5728    0.0000 H       1  UNL1        0.0235
     87 H           9.1654    0.9644    0.0000 H       1  UNL1        0.0271
     88 H           8.7556    0.2794    0.0000 H       1  UNL1        0.0271
     89 H           8.9491    6.3195    0.0000 H       1  UNL1        0.0393
     90 H           9.8051    1.9636    0.0000 H       1  UNL1        0.0235
     91 H           8.9573    1.7399    0.0000 H       1  UNL1        0.0235
     92 H           9.1810    0.8921    0.0000 H       1  UNL1        0.0235
     93 H          10.8687   -1.6295    0.0000 H       1  UNL1        0.0602
     94 H           8.7450   -0.6386    0.0000 H       1  UNL1        0.0290
     95 H           9.1388   -1.3330    0.0000 H       1  UNL1        0.0290
     96 H          10.7923    7.6192    0.0000 H       1  UNL1        0.0568
     97 H           9.9940    7.6254    0.0000 H       1  UNL1        0.0568
     98 H           8.4568    5.0249    0.0000 H       1  UNL1        0.0258
     99 H           8.6902    4.1798    0.0000 H       1  UNL1        0.0258
    100 H           9.5354    4.4132    0.0000 H       1  UNL1        0.0258
    101 H          12.3125   -1.3640    0.0000 H       1  UNL1        0.0236
    102 H          12.9277   -0.7392    0.0000 H       1  UNL1        0.0236
    103 H          12.3029   -0.1240    0.0000 H       1  UNL1        0.0236
    104 H          11.2799   -1.9280    0.0000 H       1  UNL1        0.0236
    105 H          12.1285   -2.1484    0.0000 H       1  UNL1        0.0236
    106 H          12.3489   -1.2997    0.0000 H       1  UNL1        0.0236
    107 H           8.1753    6.1158    0.0000 H       1  UNL1        0.2102
    108 H           8.0824    6.8206    0.0000 H       1  UNL1        0.0576
    109 H          10.0021   -3.1306    0.0000 H       1  UNL1        0.0937
    110 H           9.4651   -4.4406    0.0000 H       1  UNL1        0.0675
    111 H           8.0634    9.1675    0.0000 H       1  UNL1        0.0274
    112 H           7.2164    8.9406    0.0000 H       1  UNL1        0.0274
    113 H           7.4434    8.0936    0.0000 H       1  UNL1        0.0274
    114 H           9.7954    8.0936    0.0000 H       1  UNL1        0.0274
    115 H          10.0223    8.9406    0.0000 H       1  UNL1        0.0274
    116 H           9.1754    9.1675    0.0000 H       1  UNL1        0.0274
    117 H           8.0622   -4.6306    0.0000 H       1  UNL1        0.0651
    118 H           7.5210   -2.2380    0.0000 H       1  UNL1        0.0587
    119 H           7.1225   -2.9282    0.0000 H       1  UNL1        0.0587
    120 H           7.1962   -3.5106    0.0000 H       1  UNL1        0.0643
    121 H          11.2296   -4.4397    0.0000 H       1  UNL1        0.0938
    122 H           6.3301   -4.0106    0.0000 H       1  UNL1        0.2100
    123 H           8.2700   -6.1306    0.0000 H       1  UNL1        0.0938
    124 H          11.6289   -4.6175    0.0000 H       1  UNL1        0.0671
    125 H          13.0021   -4.0630    0.0000 H       1  UNL1        0.0648
    126 H          11.8897   -2.1363    0.0000 H       1  UNL1        0.0647
    127 H           7.7331   -7.4406    0.0000 H       1  UNL1        0.0671
    128 H           6.3301   -7.6306    0.0000 H       1  UNL1        0.0648
    129 H          12.9083   -5.3970    0.0000 H       1  UNL1        0.2101
    130 H           6.0010   -5.2006    0.0000 H       1  UNL1        0.0648
    131 H          12.7299   -1.0861    0.0000 H       1  UNL1        0.0584
    132 H          12.0850   -1.5546    0.0000 H       1  UNL1        0.0584
    133 H           5.4641   -6.5106    0.0000 H       1  UNL1        0.0647
    134 H          14.1388   -3.0871    0.0000 H       1  UNL1        0.2100
    135 H           9.1360   -7.0106    0.0000 H       1  UNL1        0.2101
    136 H           5.5335   -4.8456    0.0000 H       1  UNL1        0.0611
    137 H           4.7365   -4.8456    0.0000 H       1  UNL1        0.0611
    138 H           7.4040   -8.6306    0.0000 H       1  UNL1        0.2100
    139 H          13.9333   -1.0337    0.0000 H       1  UNL1        0.2095
    140 H           5.1350   -7.9406    0.0000 H       1  UNL1        0.2100
    141 H           2.0000   -5.1306    0.0000 H       1  UNL1        0.2469
@<TRIPOS>BOND
     1     1    18    1
     2     1    19    1
     3     1    20    2
     4     1    21    2
     5     2    27    1
     6     2    30    1
     7    27     3    1
     8     3    44    1
     9    35     4    1
    10     4   107    1
    11    42     5    1
    12    49     5    1
    13     6    49    1
    14     6    55    1
    15    51     7    1
    16    57     7    1
    17    54     8    1
    18    58     8    1
    19    56     9    1
    20     9   122    1
    21    10    57    1
    22    10    61    1
    23    11    58    1
    24    11    64    1
    25    59    12    1
    26    12   129    1
    27    60    13    1
    28    13   134    1
    29    62    14    1
    30    14   135    1
    31    63    15    1
    32    15   138    1
    33    16    65    1
    34    16   139    1
    35    66    17    1
    36    17   140    1
    37    18    67    1
    38    19   141    1
    39    22    23    1
    40    22    24    1
    41    22    28    1
    42    22    30    1
    43    23    25    1
    44    23    32    1
    45    23    37    1
    46    24    26    1
    47    24    31    1
    48    24    68    1
    49    25    29    1
    50    25    34    1
    51    25    69    1
    52    26    27    1
    53    26    35    1
    54    26    70    1
    55    27    28    1
    56    28    71    1
    57    28    72    1
    58    29    33    1
    59    29    39    1
    60    29    41    1
    61    30    73    1
    62    30    74    1
    63    31    34    1
    64    31    75    1
    65    31    76    1
    66    32    36    1
    67    32    77    1
    68    32    78    1
    69    33    36    1
    70    33    38    1
    71    33    79    1
    72    34    80    1
    73    34    81    1
    74    35    40    1
    75    35    45    1
    76    36    82    1
    77    36    83    1
    78    37    84    1
    79    37    85    1
    80    37    86    1
    81    38    42    1
    82    38    46    1
    83    38    47    1
    84    39    43    1
    85    39    87    1
    86    39    88    1
    87    40    44    1
    88    40    48    1
    89    40    89    1
    90    41    90    1
    91    41    91    1
    92    41    92    1
    93    42    43    1
    94    42    93    1
    95    43    94    1
    96    43    95    1
    97    44    96    1
    98    44    97    1
    99    45    98    1
   100    45    99    1
   101    45   100    1
   102    46   101    1
   103    46   102    1
   104    46   103    1
   105    47   104    1
   106    47   105    1
   107    47   106    1
   108    48    50    2
   109    48   108    1
   110    49    51    1
   111    49   109    1
   112    50    52    1
   113    50    53    1
   114    51    54    1
   115    51   110    1
   116    52   111    1
   117    52   112    1
   118    52   113    1
   119    53   114    1
   120    53   115    1
   121    53   116    1
   122    54    56    1
   123    54   117    1
   124    55    56    1
   125    55   118    1
   126    55   119    1
   127    56   120    1
   128    57    59    1
   129    57   121    1
   130    58    62    1
   131    58   123    1
   132    59    60    1
   133    59   124    1
   134    60    61    1
   135    60   125    1
   136    61    65    1
   137    61   126    1
   138    62    63    1
   139    62   127    1
   140    63    66    1
   141    63   128    1
   142    64    66    1
   143    64    67    1
   144    64   130    1
   145    65   131    1
   146    65   132    1
   147    66   133    1
   148    67   136    1
   149    67   137    1
