@<TRIPOS>MOLECULE
IMPHY003522
 20 20 0 0 0
SMALL
GASTEIGER

@<TRIPOS>ATOM
      1 O           3.4901    1.8799    0.0000 O.3     1  UNL1       -0.4804
      2 O           4.8913    0.8618    0.0000 O.2     1  UNL1       -0.2507
      3 N           2.8090   -1.3815    0.0000 N.3     1  UNL1       -0.3045
      4 C           3.3090    0.1573    0.0000 C.3     1  UNL1        0.0701
      5 C           2.3090    0.1573    0.0000 C.3     1  UNL1       -0.0261
      6 C           3.6180   -0.7937    0.0000 C.3     1  UNL1        0.0116
      7 C           2.0000   -0.7937    0.0000 C.3     1  UNL1       -0.0006
      8 C           2.8090   -2.3815    0.0000 C.3     1  UNL1       -0.0127
      9 C           3.8968    0.9664    0.0000 C.2     1  UNL1        0.3091
     10 H           4.1486    0.0244    0.0000 H       1  UNL1        0.0426
     11 H           2.3738    0.7739    0.0000 H       1  UNL1        0.0286
     12 H           1.7026    0.2862    0.0000 H       1  UNL1        0.0286
     13 H           3.9280   -1.3307    0.0000 H       1  UNL1        0.0434
     14 H           4.1844   -0.5415    0.0000 H       1  UNL1        0.0434
     15 H           1.4336   -0.5415    0.0000 H       1  UNL1        0.0427
     16 H           1.6900   -1.3307    0.0000 H       1  UNL1        0.0427
     17 H           2.1890   -2.3815    0.0000 H       1  UNL1        0.0391
     18 H           2.8090   -3.0015    0.0000 H       1  UNL1        0.0391
     19 H           3.4290   -2.3815    0.0000 H       1  UNL1        0.0391
     20 H           3.8545    2.3815    0.0000 H       1  UNL1        0.2951
@<TRIPOS>BOND
     1     1     9    1
     2     1    20    1
     3     2     9    2
     4     3     6    1
     5     3     7    1
     6     3     8    1
     7     4     5    1
     8     4     6    1
     9     4     9    1
    10     4    10    1
    11     5     7    1
    12     5    11    1
    13     5    12    1
    14     6    13    1
    15     6    14    1
    16     7    15    1
    17     7    16    1
    18     8    17    1
    19     8    18    1
    20     8    19    1
