@<TRIPOS>MOLECULE
IMPHY017635
 43 45 0 0 0
SMALL
GASTEIGER

@<TRIPOS>ATOM
      1 O           4.4453   -2.5718    0.0000 O.3     1  UNL1       -0.3827
      2 C           4.0984    0.0763    0.0000 C.3     1  UNL1       -0.0175
      3 C           3.1974    0.5102    0.0000 C.3     1  UNL1       -0.0136
      4 C           4.5984    2.2669    0.0000 C.3     1  UNL1       -0.0316
      5 C           3.9916    1.2531    0.0000 C.3     1  UNL1       -0.0429
      6 C           3.9624   -0.9084    0.0000 C.3     1  UNL1       -0.0114
      7 C           4.9994    0.5102    0.0000 C.3     1  UNL1       -0.0462
      8 C           3.5984    2.2669    0.0000 C.3     1  UNL1       -0.0110
      9 C           5.2219    1.4851    0.0000 C.3     1  UNL1       -0.0489
     10 C           2.5124   -0.2101    0.0000 C.3     1  UNL1       -0.0456
     11 C           2.9749    1.4851    0.0000 C.2     1  UNL1       -0.0671
     12 C           2.9842   -1.0851    0.0000 C.3     1  UNL1       -0.0470
     13 C           4.6840   -1.6007    0.0000 C.3     1  UNL1        0.0506
     14 C           2.7722    2.8303    0.0000 C.3     1  UNL1       -0.0558
     15 C           3.6732    3.2641    0.0000 C.3     1  UNL1       -0.0558
     16 C           2.0000    1.7076    0.0000 C.2     1  UNL1       -0.0986
     17 C           5.1669   -3.2641    0.0000 C.3     1  UNL1        0.0365
     18 H           2.5996    0.6743    0.0000 H       1  UNL1        0.0351
     19 H           4.7876    3.0956    0.0000 H       1  UNL1        0.0309
     20 H           3.5838    1.7201    0.0000 H       1  UNL1        0.0274
     21 H           3.4215    1.0092    0.0000 H       1  UNL1        0.0274
     22 H           3.7833   -1.5020    0.0000 H       1  UNL1        0.0328
     23 H           5.1374   -0.0943    0.0000 H       1  UNL1        0.0271
     24 H           5.6194    0.5102    0.0000 H       1  UNL1        0.0271
     25 H           5.7805    1.2161    0.0000 H       1  UNL1        0.0268
     26 H           5.6085    1.9698    0.0000 H       1  UNL1        0.0268
     27 H           2.1105    0.2620    0.0000 H       1  UNL1        0.0271
     28 H           2.0006   -0.5601    0.0000 H       1  UNL1        0.0271
     29 H           2.4105   -1.3204    0.0000 H       1  UNL1        0.0269
     30 H           3.1579   -1.6803    0.0000 H       1  UNL1        0.0269
     31 H           5.2512   -1.8511    0.0000 H       1  UNL1        0.0562
     32 H           5.0290   -1.0856    0.0000 H       1  UNL1        0.0562
     33 H           3.1214    3.3425    0.0000 H       1  UNL1        0.0238
     34 H           2.2599    3.1795    0.0000 H       1  UNL1        0.0238
     35 H           2.4229    2.3180    0.0000 H       1  UNL1        0.0238
     36 H           4.2914    3.2178    0.0000 H       1  UNL1        0.0238
     37 H           3.7195    3.8824    0.0000 H       1  UNL1        0.0238
     38 H           3.0549    3.3105    0.0000 H       1  UNL1        0.0238
     39 H           1.8172    2.3001    0.0000 H       1  UNL1        0.0535
     40 H           1.5783    1.2531    0.0000 H       1  UNL1        0.0535
     41 H           4.7376   -3.7115    0.0000 H       1  UNL1        0.0523
     42 H           5.6142   -3.6934    0.0000 H       1  UNL1        0.0523
     43 H           5.5961   -2.8168    0.0000 H       1  UNL1        0.0523
@<TRIPOS>BOND
     1     1    13    1
     2     1    17    1
     3     2     3    1
     4     2     5    1
     5     2     6    1
     6     2     7    1
     7     3    10    1
     8     3    11    1
     9     3    18    1
    10     4     5    1
    11     4     8    1
    12     4     9    1
    13     4    19    1
    14     5    20    1
    15     5    21    1
    16     6    12    1
    17     6    13    1
    18     6    22    1
    19     7     9    1
    20     7    23    1
    21     7    24    1
    22     8    11    1
    23     8    14    1
    24     8    15    1
    25     9    25    1
    26     9    26    1
    27    10    12    1
    28    10    27    1
    29    10    28    1
    30    11    16    2
    31    12    29    1
    32    12    30    1
    33    13    31    1
    34    13    32    1
    35    14    33    1
    36    14    34    1
    37    14    35    1
    38    15    36    1
    39    15    37    1
    40    15    38    1
    41    16    39    1
    42    16    40    1
    43    17    41    1
    44    17    42    1
    45    17    43    1
