@<TRIPOS>MOLECULE
IMPHY012544
 47 48 0 0 0
SMALL
GASTEIGER

@<TRIPOS>ATOM
      1 O           2.5369    2.4050    0.0000 O.3     1  UNL1       -0.5065
      2 O           5.1350   -2.0950    0.0000 O.3     1  UNL1       -0.5064
      3 O           6.8671   -5.0950    0.0000 O.3     1  UNL1       -0.5066
      4 C           6.0010   -0.5950    0.0000 C.3     1  UNL1       -0.0450
      5 C           6.0010    0.4050    0.0000 C.3     1  UNL1       -0.0274
      6 C           6.8671   -1.0950    0.0000 C.3     1  UNL1       -0.0239
      7 C           5.1350    0.9050    0.0000 C.ar    1  UNL1       -0.0469
      8 C           6.8671   -2.0950    0.0000 C.ar    1  UNL1       -0.0057
      9 C           4.2690    2.4050    0.0000 C.ar    1  UNL1       -0.0020
     10 C           5.1350    1.9050    0.0000 C.ar    1  UNL1       -0.0516
     11 C           4.2690    0.4050    0.0000 C.ar    1  UNL1       -0.0551
     12 C           4.2690    3.4050    0.0000 C.3     1  UNL1       -0.0058
     13 C           3.4030    1.9050    0.0000 C.ar    1  UNL1        0.1203
     14 C           3.4030    0.9050    0.0000 C.ar    1  UNL1       -0.0196
     15 C           6.0010   -2.5950    0.0000 C.ar    1  UNL1        0.1235
     16 C           7.7331   -2.5950    0.0000 C.ar    1  UNL1       -0.0517
     17 C           5.1350    3.9050    0.0000 C.2     1  UNL1       -0.0809
     18 C           6.0010   -3.5950    0.0000 C.ar    1  UNL1        0.0216
     19 C           7.7331   -3.5950    0.0000 C.ar    1  UNL1       -0.0197
     20 C           5.1350    4.9050    0.0000 C.2     1  UNL1       -0.0793
     21 C           6.8671   -4.0950    0.0000 C.ar    1  UNL1        0.1203
     22 C           6.0010    5.4050    0.0000 C.3     1  UNL1       -0.0440
     23 C           4.2690    5.4050    0.0000 C.3     1  UNL1       -0.0440
     24 H           5.3905   -0.4873    0.0000 H       1  UNL1        0.0272
     25 H           5.7890   -1.1776    0.0000 H       1  UNL1        0.0272
     26 H           6.6116    0.2973    0.0000 H       1  UNL1        0.0313
     27 H           6.2131    0.9876    0.0000 H       1  UNL1        0.0313
     28 H           7.4776   -1.2027    0.0000 H       1  UNL1        0.0314
     29 H           7.0791   -0.5124    0.0000 H       1  UNL1        0.0314
     30 H           5.6720    2.2150    0.0000 H       1  UNL1        0.0624
     31 H           4.2690   -0.2150    0.0000 H       1  UNL1        0.0621
     32 H           4.0569    3.9876    0.0000 H       1  UNL1        0.0357
     33 H           3.6584    3.2973    0.0000 H       1  UNL1        0.0357
     34 H           2.8660    0.5950    0.0000 H       1  UNL1        0.0654
     35 H           8.2700   -2.2850    0.0000 H       1  UNL1        0.0623
     36 H           5.6720    3.5950    0.0000 H       1  UNL1        0.0575
     37 H           5.4641   -3.9050    0.0000 H       1  UNL1        0.0691
     38 H           8.2700   -3.9050    0.0000 H       1  UNL1        0.0654
     39 H           2.0000    2.0950    0.0000 H       1  UNL1        0.2921
     40 H           6.3110    4.8681    0.0000 H       1  UNL1        0.0274
     41 H           6.5380    5.7150    0.0000 H       1  UNL1        0.0274
     42 H           5.6910    5.9419    0.0000 H       1  UNL1        0.0274
     43 H           4.5790    5.9419    0.0000 H       1  UNL1        0.0274
     44 H           3.7320    5.7150    0.0000 H       1  UNL1        0.0274
     45 H           3.9590    4.8681    0.0000 H       1  UNL1        0.0274
     46 H           4.5981   -2.4050    0.0000 H       1  UNL1        0.2921
     47 H           7.4040   -5.4050    0.0000 H       1  UNL1        0.2921
@<TRIPOS>BOND
     1     1    13    1
     2     1    39    1
     3     2    15    1
     4     2    46    1
     5     3    21    1
     6     3    47    1
     7     4     5    1
     8     4     6    1
     9     4    24    1
    10     4    25    1
    11     5     7    1
    12     5    26    1
    13     5    27    1
    14     6     8    1
    15     6    28    1
    16     6    29    1
    17     7    10   ar
    18     7    11   ar
    19     8    15   ar
    20     8    16   ar
    21     9    10   ar
    22     9    12    1
    23     9    13   ar
    24    10    30    1
    25    11    14   ar
    26    11    31    1
    27    12    17    1
    28    12    32    1
    29    12    33    1
    30    13    14   ar
    31    14    34    1
    32    15    18   ar
    33    16    19   ar
    34    16    35    1
    35    17    20    2
    36    17    36    1
    37    18    21   ar
    38    18    37    1
    39    19    21   ar
    40    19    38    1
    41    20    22    1
    42    20    23    1
    43    22    40    1
    44    22    41    1
    45    22    42    1
    46    23    43    1
    47    23    44    1
    48    23    45    1
