@<TRIPOS>MOLECULE
IMPHY015430
 27 28 0 0 0
SMALL
GASTEIGER

@<TRIPOS>ATOM
      1 O           7.0393   -1.6964    0.0000 O.3     1  UNL1       -0.3912
      2 C           4.9852    0.7678    0.0000 C.3     1  UNL1       -0.0292
      3 C           3.5862    0.2590    0.0000 C.3     1  UNL1       -0.0109
      4 C           5.2440   -0.1981    0.0000 C.3     1  UNL1        0.0067
      5 C           5.7218    1.7504    0.0000 C.3     1  UNL1       -0.0404
      6 C           6.9587    0.1496    0.0000 C.3     1  UNL1       -0.0227
      7 C           6.6167   -0.7901    0.0000 C.3     1  UNL1        0.0620
      8 C           3.8451   -0.7069    0.0000 C.2     1  UNL1       -0.0652
      9 C           2.5917    0.1545    0.0000 C.3     1  UNL1       -0.0558
     10 C           3.1795    1.1726    0.0000 C.3     1  UNL1       -0.0558
     11 C           3.3451   -1.5729    0.0000 C.2     1  UNL1       -0.0986
     12 H           4.7652    1.5889    0.0000 H       1  UNL1        0.0310
     13 H           5.4640   -1.0191    0.0000 H       1  UNL1        0.0371
     14 H           5.4040    2.2828    0.0000 H       1  UNL1        0.0275
     15 H           6.3349    1.8424    0.0000 H       1  UNL1        0.0275
     16 H           7.1530    0.7384    0.0000 H       1  UNL1        0.0293
     17 H           7.5445   -0.0536    0.0000 H       1  UNL1        0.0293
     18 H           6.1847   -1.2349    0.0000 H       1  UNL1        0.0599
     19 H           2.6565   -0.4621    0.0000 H       1  UNL1        0.0238
     20 H           1.9751    0.0897    0.0000 H       1  UNL1        0.0238
     21 H           2.5269    0.7711    0.0000 H       1  UNL1        0.0238
     22 H           2.6131    0.9204    0.0000 H       1  UNL1        0.0238
     23 H           2.9273    1.7390    0.0000 H       1  UNL1        0.0238
     24 H           3.7459    1.4247    0.0000 H       1  UNL1        0.0238
     25 H           3.6551   -2.1099    0.0000 H       1  UNL1        0.0535
     26 H           2.7251   -1.5729    0.0000 H       1  UNL1        0.0535
     27 H           7.6570   -1.7504    0.0000 H       1  UNL1        0.2098
@<TRIPOS>BOND
     1     7     1    1
     2     1    27    1
     3     2     3    1
     4     2     5    1
     5     2     6    1
     6     2    12    1
     7     3     8    1
     8     3     9    1
     9     3    10    1
    10     4     5    1
    11     4     7    1
    12     4     8    1
    13     4    13    1
    14     5    14    1
    15     5    15    1
    16     6     7    1
    17     6    16    1
    18     6    17    1
    19     7    18    1
    20     8    11    2
    21     9    19    1
    22     9    20    1
    23     9    21    1
    24    10    22    1
    25    10    23    1
    26    10    24    1
    27    11    25    1
    28    11    26    1
