@<TRIPOS>MOLECULE
IMPHY015083
 55 58 0 0 0
SMALL
GASTEIGER

@<TRIPOS>ATOM
      1 O           5.1350   -1.2857    0.0000 O.3     1  UNL1       -0.3405
      2 O           6.8671   -1.2857    0.0000 O.3     1  UNL1       -0.3335
      3 O           5.1350   -4.2857    0.0000 O.3     1  UNL1       -0.3864
      4 O           6.8671   -3.2857    0.0000 O.3     1  UNL1       -0.3841
      5 O           3.4030   -3.2857    0.0000 O.3     1  UNL1       -0.3865
      6 O           7.7331    1.2143    0.0000 O.3     1  UNL1       -0.4802
      7 O           2.5369   -1.7857    0.0000 O.3     1  UNL1       -0.3924
      8 O           5.1350   -0.2857    0.0000 O.2     1  UNL1       -0.2889
      9 O           4.2308    1.2112    0.0000 O.3     1  UNL1       -0.5058
     10 O           5.9889    4.2836    0.0000 O.3     1  UNL1       -0.5065
     11 O          11.1972    0.2143    0.0000 O.3     1  UNL1       -0.5033
     12 O          11.1972   -1.7857    0.0000 O.3     1  UNL1       -0.5033
     13 C           5.1350   -3.2857    0.0000 C.3     1  UNL1        0.1141
     14 C           6.0010   -2.7857    0.0000 C.3     1  UNL1        0.1341
     15 C           4.2690   -2.7857    0.0000 C.3     1  UNL1        0.1119
     16 C           6.0010   -1.7857    0.0000 C.3     1  UNL1        0.1889
     17 C           4.2690   -1.7857    0.0000 C.3     1  UNL1        0.1130
     18 C           6.8671   -0.2857    0.0000 C.3     1  UNL1        0.1650
     19 C           7.7331    0.2143    0.0000 C.3     1  UNL1        0.1586
     20 C           3.4030   -1.2857    0.0000 C.3     1  UNL1        0.0730
     21 C           6.0010    0.2143    0.0000 C.2     1  UNL1        0.2027
     22 C           8.5991   -0.2857    0.0000 C.ar    1  UNL1       -0.0007
     23 C           6.0010    1.2143    0.0000 C.ar    1  UNL1        0.1033
     24 C           6.8671    1.7143    0.0000 C.ar    1  UNL1        0.1391
     25 C           5.0910    1.7212    0.0000 C.ar    1  UNL1        0.1344
     26 C           9.4651    0.2143    0.0000 C.ar    1  UNL1       -0.0098
     27 C           8.5991   -1.2857    0.0000 C.ar    1  UNL1       -0.0513
     28 C           6.8831    2.7558    0.0000 C.ar    1  UNL1        0.0225
     29 C           5.0830    2.7628    0.0000 C.ar    1  UNL1        0.0222
     30 C           5.9851    3.2836    0.0000 C.ar    1  UNL1        0.1238
     31 C          10.3312   -0.2857    0.0000 C.ar    1  UNL1        0.1586
     32 C           9.4651   -1.7857    0.0000 C.ar    1  UNL1       -0.0162
     33 C          10.3312   -1.2857    0.0000 C.ar    1  UNL1        0.1582
     34 H           4.5981   -3.5957    0.0000 H       1  UNL1        0.0648
     35 H           6.0010   -3.4057    0.0000 H       1  UNL1        0.0671
     36 H           4.2690   -3.4057    0.0000 H       1  UNL1        0.0647
     37 H           6.0010   -1.1657    0.0000 H       1  UNL1        0.0938
     38 H           4.2690   -1.1657    0.0000 H       1  UNL1        0.0647
     39 H           7.4040   -0.5957    0.0000 H       1  UNL1        0.0722
     40 H           8.2700    0.5243    0.0000 H       1  UNL1        0.0815
     41 H           3.8015   -0.8107    0.0000 H       1  UNL1        0.0584
     42 H           3.0044   -0.8107    0.0000 H       1  UNL1        0.0584
     43 H           4.5981   -4.5957    0.0000 H       1  UNL1        0.2100
     44 H           6.8671   -3.9057    0.0000 H       1  UNL1        0.2101
     45 H           3.4030   -3.9057    0.0000 H       1  UNL1        0.2100
     46 H           2.0000   -1.4757    0.0000 H       1  UNL1        0.2095
     47 H           9.4651    0.8343    0.0000 H       1  UNL1        0.0659
     48 H           8.0622   -1.5957    0.0000 H       1  UNL1        0.0623
     49 H           7.4236    3.0596    0.0000 H       1  UNL1        0.0691
     50 H           4.5449    3.0707    0.0000 H       1  UNL1        0.0691
     51 H           9.4651   -2.4057    0.0000 H       1  UNL1        0.0655
     52 H           3.6904    1.5150    0.0000 H       1  UNL1        0.2922
     53 H           5.4532    4.5957    0.0000 H       1  UNL1        0.2921
     54 H          11.1972    0.8343    0.0000 H       1  UNL1        0.2923
     55 H          11.1972   -2.4057    0.0000 H       1  UNL1        0.2923
@<TRIPOS>BOND
     1     1    16    1
     2     1    17    1
     3    16     2    1
     4    18     2    1
     5    13     3    1
     6     3    43    1
     7    14     4    1
     8     4    44    1
     9    15     5    1
    10     5    45    1
    11     6    19    1
    12     6    24    1
    13     7    20    1
    14     7    46    1
    15     8    21    2
    16     9    25    1
    17     9    52    1
    18    10    30    1
    19    10    53    1
    20    11    31    1
    21    11    54    1
    22    12    33    1
    23    12    55    1
    24    13    14    1
    25    13    15    1
    26    13    34    1
    27    14    16    1
    28    14    35    1
    29    15    17    1
    30    15    36    1
    31    16    37    1
    32    17    20    1
    33    17    38    1
    34    18    19    1
    35    18    21    1
    36    18    39    1
    37    19    22    1
    38    19    40    1
    39    20    41    1
    40    20    42    1
    41    21    23    1
    42    22    26   ar
    43    22    27   ar
    44    23    24   ar
    45    23    25   ar
    46    24    28   ar
    47    25    29   ar
    48    26    31   ar
    49    26    47    1
    50    27    32   ar
    51    27    48    1
    52    28    30   ar
    53    28    49    1
    54    29    30   ar
    55    29    50    1
    56    31    33   ar
    57    32    33   ar
    58    32    51    1
