@<TRIPOS>MOLECULE
IMPHY005533
 75 81 0 0 0
SMALL
GASTEIGER

@<TRIPOS>ATOM
      1 O          12.9532   -1.9627    0.0000 O.3     1  UNL1       -0.4851
      2 O          10.8213   -0.3965    0.0000 O.3     1  UNL1       -0.3833
      3 O          11.2732   -5.2188    0.0000 O.3     1  UNL1       -0.5059
      4 O           7.7764   -1.1496    0.0000 O.3     1  UNL1       -0.4502
      5 O           9.5248   -5.1842    0.0000 O.2     1  UNL1       -0.2864
      6 O           7.7922    0.8986    0.0000 O.3     1  UNL1       -0.5019
      7 O           3.4167    0.4629    0.0000 O.2     1  UNL1       -0.2864
      8 O           2.5357    1.9735    0.0000 O.3     1  UNL1       -0.5059
      9 O           4.3410    5.0184    0.0000 O.3     1  UNL1       -0.4949
     10 N           9.5248   -2.1842    0.0000 N.ar    1  UNL1       -0.3394
     11 N           6.0376    1.9226    0.0000 N.ar    1  UNL1       -0.3396
     12 C          12.5239   -1.0204    0.0000 C.3     1  UNL1        0.1325
     13 C          11.4949   -1.1356    0.0000 C.3     1  UNL1        0.1224
     14 C          11.2848   -2.1496    0.0000 C.ar    1  UNL1        0.0504
     15 C          13.0172   -0.1505    0.0000 C.3     1  UNL1       -0.0068
     16 C          10.3909   -2.6842    0.0000 C.ar    1  UNL1        0.0659
     17 C          12.1909   -2.6634    0.0000 C.ar    1  UNL1        0.1323
     18 C          10.3909   -3.6842    0.0000 C.ar    1  UNL1        0.0877
     19 C          14.0172   -0.1428    0.0000 C.3     1  UNL1       -0.0592
     20 C          12.5106    0.7116    0.0000 C.3     1  UNL1       -0.0592
     21 C          12.1909   -3.7050    0.0000 C.ar    1  UNL1        0.0228
     22 C          11.2848   -4.2189    0.0000 C.ar    1  UNL1        0.1331
     23 C           8.6588   -2.6842    0.0000 C.ar    1  UNL1        0.0958
     24 C           9.5248   -4.1842    0.0000 C.ar    1  UNL1        0.2007
     25 C           8.6588   -3.6842    0.0000 C.ar    1  UNL1        0.0495
     26 C           9.5248   -1.1842    0.0000 C.3     1  UNL1        0.0125
     27 C           7.7649   -2.1496    0.0000 C.ar    1  UNL1        0.1527
     28 C           7.7649   -4.2189    0.0000 C.ar    1  UNL1       -0.0487
     29 C           6.8588   -2.6634    0.0000 C.ar    1  UNL1       -0.0172
     30 C           6.8588   -3.7050    0.0000 C.ar    1  UNL1       -0.0575
     31 C           6.9162   -0.6397    0.0000 C.ar    1  UNL1        0.1718
     32 C           6.0222    0.9228    0.0000 C.ar    1  UNL1        0.0987
     33 C           5.1486    0.4362    0.0000 C.ar    1  UNL1        0.0497
     34 C           6.9243    0.4019    0.0000 C.ar    1  UNL1        0.1838
     35 C           5.1794    2.4359    0.0000 C.ar    1  UNL1        0.0600
     36 C           4.3058    1.9493    0.0000 C.ar    1  UNL1        0.0873
     37 C           6.0062   -1.1465    0.0000 C.ar    1  UNL1       -0.0149
     38 C           4.2903    0.9495    0.0000 C.ar    1  UNL1        0.2007
     39 C           5.1164   -0.6050    0.0000 C.ar    1  UNL1       -0.0452
     40 C           6.9112    2.4092    0.0000 C.3     1  UNL1        0.0125
     41 C           5.2115    3.4771    0.0000 C.ar    1  UNL1        0.0045
     42 C           3.4037    2.4702    0.0000 C.ar    1  UNL1        0.1331
     43 C           4.3217    4.0186    0.0000 C.ar    1  UNL1        0.1256
     44 C           3.4117    3.5118    0.0000 C.ar    1  UNL1        0.0224
     45 C           3.4848    5.5350    0.0000 C.3     1  UNL1        0.0788
     46 H          13.1433   -1.0478    0.0000 H       1  UNL1        0.0765
     47 H          11.7134   -0.5554    0.0000 H       1  UNL1        0.0683
     48 H          13.3231    0.3888    0.0000 H       1  UNL1        0.0332
     49 H          14.0220   -0.7628    0.0000 H       1  UNL1        0.0233
     50 H          13.0451    1.0258    0.0000 H       1  UNL1        0.0233
     51 H          12.1964    1.2462    0.0000 H       1  UNL1        0.0233
     52 H          11.9760    0.3975    0.0000 H       1  UNL1        0.0233
     53 H          14.6372   -0.1380    0.0000 H       1  UNL1        0.0233
     54 H          14.0124    0.4772    0.0000 H       1  UNL1        0.0233
     55 H          12.7266   -4.0171    0.0000 H       1  UNL1        0.0691
     56 H          11.0094    0.1943    0.0000 H       1  UNL1        0.2104
     57 H          10.1448   -1.1842    0.0000 H       1  UNL1        0.0456
     58 H           9.5248   -0.5642    0.0000 H       1  UNL1        0.0456
     59 H           8.9048   -1.1842    0.0000 H       1  UNL1        0.0456
     60 H           7.7720   -4.8388    0.0000 H       1  UNL1        0.0625
     61 H           6.3231   -2.3514    0.0000 H       1  UNL1        0.0655
     62 H           6.3231   -4.0171    0.0000 H       1  UNL1        0.0619
     63 H          11.8065   -5.5350    0.0000 H       1  UNL1        0.2922
     64 H           5.9943   -1.7664    0.0000 H       1  UNL1        0.0656
     65 H           4.5713   -0.9004    0.0000 H       1  UNL1        0.0626
     66 H           7.2129    1.8676    0.0000 H       1  UNL1        0.0456
     67 H           7.4529    2.7109    0.0000 H       1  UNL1        0.0456
     68 H           6.6096    2.9509    0.0000 H       1  UNL1        0.0456
     69 H           5.7566    3.7725    0.0000 H       1  UNL1        0.0675
     70 H           2.8784    3.8280    0.0000 H       1  UNL1        0.0691
     71 H           7.7946    1.5186    0.0000 H       1  UNL1        0.2924
     72 H           2.0000    2.2856    0.0000 H       1  UNL1        0.2922
     73 H           3.8050    6.0659    0.0000 H       1  UNL1        0.0660
     74 H           2.9539    5.8553    0.0000 H       1  UNL1        0.0660
     75 H           3.1645    5.0042    0.0000 H       1  UNL1        0.0660
@<TRIPOS>BOND
     1     1    12    1
     2     1    17    1
     3    13     2    1
     4     2    56    1
     5     3    22    1
     6     3    63    1
     7     4    27    1
     8     4    31    1
     9     5    24    2
    10     6    34    1
    11     6    71    1
    12     7    38    2
    13     8    42    1
    14     8    72    1
    15     9    43    1
    16     9    45    1
    17    10    16   ar
    18    10    23   ar
    19    10    26    1
    20    11    32   ar
    21    11    35   ar
    22    11    40    1
    23    12    13    1
    24    12    15    1
    25    12    46    1
    26    13    14    1
    27    13    47    1
    28    14    16   ar
    29    14    17   ar
    30    15    19    1
    31    15    20    1
    32    15    48    1
    33    16    18   ar
    34    17    21   ar
    35    18    22   ar
    36    18    24   ar
    37    19    49    1
    38    19    53    1
    39    19    54    1
    40    20    50    1
    41    20    51    1
    42    20    52    1
    43    21    22   ar
    44    21    55    1
    45    23    25   ar
    46    23    27   ar
    47    24    25   ar
    48    25    28   ar
    49    26    57    1
    50    26    58    1
    51    26    59    1
    52    27    29   ar
    53    28    30   ar
    54    28    60    1
    55    29    30   ar
    56    29    61    1
    57    30    62    1
    58    31    34   ar
    59    31    37   ar
    60    32    33   ar
    61    32    34   ar
    62    33    38   ar
    63    33    39   ar
    64    35    36   ar
    65    35    41   ar
    66    36    38   ar
    67    36    42   ar
    68    37    39   ar
    69    37    64    1
    70    39    65    1
    71    40    66    1
    72    40    67    1
    73    40    68    1
    74    41    43   ar
    75    41    69    1
    76    42    44   ar
    77    43    44   ar
    78    44    70    1
    79    45    73    1
    80    45    74    1
    81    45    75    1
