@<TRIPOS>MOLECULE
IMPHY004440
 27 27 0 0 0
SMALL
GASTEIGER

@<TRIPOS>ATOM
      1 O           2.8660   -2.3450    0.0000 O.3     1  UNL1       -0.4914
      2 O           4.5981   -3.3450    0.0000 O.3     1  UNL1       -0.5033
      3 O           6.3301    2.6550    0.0000 O.3     1  UNL1       -0.4649
      4 O           4.5981    2.6550    0.0000 O.2     1  UNL1       -0.2456
      5 C           4.5981   -0.3450    0.0000 C.ar    1  UNL1       -0.0211
      6 C           3.7320   -1.8450    0.0000 C.ar    1  UNL1        0.1618
      7 C           3.7320   -0.8450    0.0000 C.ar    1  UNL1       -0.0092
      8 C           5.4641   -0.8450    0.0000 C.ar    1  UNL1       -0.0509
      9 C           4.5981   -2.3450    0.0000 C.ar    1  UNL1        0.1585
     10 C           5.4641   -1.8450    0.0000 C.ar    1  UNL1       -0.0160
     11 C           4.5981    0.6550    0.0000 C.2     1  UNL1       -0.0477
     12 C           5.4641    1.1550    0.0000 C.2     1  UNL1        0.0230
     13 C           2.0000   -1.8450    0.0000 C.3     1  UNL1        0.0790
     14 C           5.4641    2.1550    0.0000 C.2     1  UNL1        0.3317
     15 C           6.3301    3.6550    0.0000 C.3     1  UNL1        0.0820
     16 H           3.1951   -0.5350    0.0000 H       1  UNL1        0.0661
     17 H           6.0010   -0.5350    0.0000 H       1  UNL1        0.0625
     18 H           6.0010   -2.1550    0.0000 H       1  UNL1        0.0655
     19 H           4.0611    0.9650    0.0000 H       1  UNL1        0.0626
     20 H           6.0010    0.8450    0.0000 H       1  UNL1        0.0689
     21 H           2.3100   -1.3081    0.0000 H       1  UNL1        0.0660
     22 H           1.4631   -1.5350    0.0000 H       1  UNL1        0.0660
     23 H           1.6900   -2.3819    0.0000 H       1  UNL1        0.0660
     24 H           5.1350   -3.6550    0.0000 H       1  UNL1        0.2923
     25 H           6.9501    3.6550    0.0000 H       1  UNL1        0.0661
     26 H           6.3301    4.2750    0.0000 H       1  UNL1        0.0661
     27 H           5.7101    3.6550    0.0000 H       1  UNL1        0.0661
@<TRIPOS>BOND
     1     1     6    1
     2     1    13    1
     3     2     9    1
     4     2    24    1
     5     3    14    1
     6     3    15    1
     7     4    14    2
     8     5     7   ar
     9     5     8   ar
    10     5    11    1
    11     6     7   ar
    12     6     9   ar
    13     7    16    1
    14     8    10   ar
    15     8    17    1
    16     9    10   ar
    17    10    18    1
    18    11    12    2
    19    11    19    1
    20    12    14    1
    21    12    20    1
    22    13    21    1
    23    13    22    1
    24    13    23    1
    25    15    25    1
    26    15    26    1
    27    15    27    1
