@<TRIPOS>MOLECULE
IMPHY007605
 50 51 0 0 0
SMALL
GASTEIGER

@<TRIPOS>ATOM
      1 O           7.7331   -0.5000    0.0000 O.3     1  UNL1       -0.3404
      2 O           6.0010    0.5000    0.0000 O.3     1  UNL1       -0.3461
      3 O           4.2690    0.5000    0.0000 O.3     1  UNL1       -0.3461
      4 O           6.0010   -2.5000    0.0000 O.3     1  UNL1       -0.3865
      5 O           7.7331   -3.5000    0.0000 O.3     1  UNL1       -0.3864
      6 O           9.4651   -0.5000    0.0000 O.3     1  UNL1       -0.3207
      7 O           9.4651   -2.5000    0.0000 O.3     1  UNL1       -0.3841
      8 O           6.0010    2.5000    0.0000 O.3     1  UNL1       -0.3841
      9 O           4.2690    3.5000    0.0000 O.3     1  UNL1       -0.3864
     10 O           2.5369    2.5000    0.0000 O.3     1  UNL1       -0.3869
     11 O           9.4651    2.5000    0.0000 O.co2   1  UNL1       -0.6016
     12 N          10.3312    1.0000    0.0000 N.2     1  UNL1       -0.0013
     13 N          10.3312    2.0000    0.0000 N.3     1  UNL1       -0.0953
     14 C           6.8671   -1.0000    0.0000 C.3     1  UNL1        0.1134
     15 C           6.8671   -2.0000    0.0000 C.3     1  UNL1        0.1119
     16 C           7.7331   -2.5000    0.0000 C.3     1  UNL1        0.1141
     17 C           8.5991   -2.0000    0.0000 C.3     1  UNL1        0.1342
     18 C           8.5991   -1.0000    0.0000 C.3     1  UNL1        0.1903
     19 C           6.0010   -0.5000    0.0000 C.3     1  UNL1        0.0796
     20 C           5.1350    1.0000    0.0000 C.3     1  UNL1        0.1876
     21 C           5.1350    2.0000    0.0000 C.3     1  UNL1        0.1341
     22 C           4.2690    2.5000    0.0000 C.3     1  UNL1        0.1137
     23 C           3.4030    2.0000    0.0000 C.3     1  UNL1        0.1069
     24 C           3.4030    1.0000    0.0000 C.3     1  UNL1        0.0792
     25 C           9.4651    0.5000    0.0000 C.3     1  UNL1        0.2043
     26 C          11.1972    2.5000    0.0000 C.3     1  UNL1        0.1730
     27 H           6.8671   -0.3800    0.0000 H       1  UNL1        0.0647
     28 H           6.8671   -2.6200    0.0000 H       1  UNL1        0.0647
     29 H           8.2700   -2.8100    0.0000 H       1  UNL1        0.0648
     30 H           9.1360   -1.6900    0.0000 H       1  UNL1        0.0671
     31 H           8.5991   -0.3800    0.0000 H       1  UNL1        0.0938
     32 H           5.3905   -0.3923    0.0000 H       1  UNL1        0.0587
     33 H           5.7890   -1.0826    0.0000 H       1  UNL1        0.0587
     34 H           5.6720    1.3100    0.0000 H       1  UNL1        0.0937
     35 H           5.1350    2.6200    0.0000 H       1  UNL1        0.0671
     36 H           3.7320    2.8100    0.0000 H       1  UNL1        0.0647
     37 H           3.9650    2.6200    0.0000 H       1  UNL1        0.0643
     38 H           2.7924    1.1077    0.0000 H       1  UNL1        0.0587
     39 H           3.1909    0.4174    0.0000 H       1  UNL1        0.0587
     40 H           5.4641   -2.1900    0.0000 H       1  UNL1        0.2100
     41 H           7.1962   -3.8100    0.0000 H       1  UNL1        0.2100
     42 H          10.0021   -2.1900    0.0000 H       1  UNL1        0.2101
     43 H           6.0010    3.1200    0.0000 H       1  UNL1        0.2101
     44 H           3.7320    3.8100    0.0000 H       1  UNL1        0.2100
     45 H           2.0000    2.1900    0.0000 H       1  UNL1        0.2100
     46 H           9.2531    1.0826    0.0000 H       1  UNL1        0.0876
     47 H           8.8546    0.3923    0.0000 H       1  UNL1        0.0876
     48 H          11.5072    1.9631    0.0000 H       1  UNL1        0.1028
     49 H          11.7341    2.8100    0.0000 H       1  UNL1        0.1028
     50 H          10.8872    3.0369    0.0000 H       1  UNL1        0.1028
@<TRIPOS>UNITY_ATOM_ATTR
11 1
charge -1
13 1
charge 1
@<TRIPOS>BOND
     1     1    14    1
     2     1    18    1
     3     2    19    1
     4    20     2    1
     5     3    20    1
     6     3    24    1
     7    15     4    1
     8     4    40    1
     9    16     5    1
    10     5    41    1
    11    18     6    1
    12     6    25    1
    13    17     7    1
    14     7    42    1
    15    21     8    1
    16     8    43    1
    17    22     9    1
    18     9    44    1
    19    23    10    1
    20    10    45    1
    21    11    13    1
    22    12    13    2
    23    12    25    1
    24    13    26    1
    25    14    15    1
    26    14    19    1
    27    14    27    1
    28    15    16    1
    29    15    28    1
    30    16    17    1
    31    16    29    1
    32    17    18    1
    33    17    30    1
    34    18    31    1
    35    19    32    1
    36    19    33    1
    37    20    21    1
    38    20    34    1
    39    21    22    1
    40    21    35    1
    41    22    23    1
    42    22    36    1
    43    23    24    1
    44    23    37    1
    45    24    38    1
    46    24    39    1
    47    25    46    1
    48    25    47    1
    49    26    48    1
    50    26    49    1
    51    26    50    1
