@<TRIPOS>MOLECULE
IMPHY005539
 46 45 0 0 0
SMALL
GASTEIGER

@<TRIPOS>ATOM
      1 O           4.5981   -0.5950    0.0000 O.3     1  UNL1       -0.3918
      2 O          11.5263   -0.5950    0.0000 O.3     1  UNL1       -0.3912
      3 O          14.1244    0.9050    0.0000 O.3     1  UNL1       -0.4806
      4 O          13.2583   -0.5950    0.0000 O.2     1  UNL1       -0.2509
      5 C           7.1962    0.9050    0.0000 C.3     1  UNL1       -0.0530
      6 C           8.0622    0.4050    0.0000 C.3     1  UNL1       -0.0531
      7 C           6.3301    0.4050    0.0000 C.3     1  UNL1       -0.0507
      8 C           8.9282    0.9050    0.0000 C.3     1  UNL1       -0.0530
      9 C           5.4641    0.9050    0.0000 C.3     1  UNL1       -0.0269
     10 C           9.7942    0.4050    0.0000 C.3     1  UNL1       -0.0507
     11 C           4.5981    0.4050    0.0000 C.3     1  UNL1        0.0552
     12 C          10.6603    0.9050    0.0000 C.3     1  UNL1       -0.0263
     13 C           3.7320    0.9050    0.0000 C.3     1  UNL1       -0.0271
     14 C          11.5263    0.4050    0.0000 C.3     1  UNL1        0.0653
     15 C           2.8660    0.4050    0.0000 C.3     1  UNL1       -0.0536
     16 C          12.3923    0.9050    0.0000 C.3     1  UNL1        0.0707
     17 C           2.0000    0.9050    0.0000 C.3     1  UNL1       -0.0652
     18 C          13.2583    0.4050    0.0000 C.2     1  UNL1        0.3072
     19 H           7.5947    1.3800    0.0000 H       1  UNL1        0.0265
     20 H           6.7976    1.3800    0.0000 H       1  UNL1        0.0265
     21 H           7.6636   -0.0699    0.0000 H       1  UNL1        0.0265
     22 H           8.4607   -0.0699    0.0000 H       1  UNL1        0.0265
     23 H           5.9316   -0.0699    0.0000 H       1  UNL1        0.0266
     24 H           6.7287   -0.0699    0.0000 H       1  UNL1        0.0266
     25 H           9.3267    1.3800    0.0000 H       1  UNL1        0.0265
     26 H           8.5297    1.3800    0.0000 H       1  UNL1        0.0265
     27 H           5.8626    1.3800    0.0000 H       1  UNL1        0.0290
     28 H           5.0656    1.3800    0.0000 H       1  UNL1        0.0290
     29 H           9.3957   -0.0699    0.0000 H       1  UNL1        0.0266
     30 H          10.1928   -0.0699    0.0000 H       1  UNL1        0.0266
     31 H           5.1350    0.0950    0.0000 H       1  UNL1        0.0593
     32 H          11.0588    1.3800    0.0000 H       1  UNL1        0.0290
     33 H          10.2617    1.3800    0.0000 H       1  UNL1        0.0290
     34 H           4.1306    1.3800    0.0000 H       1  UNL1        0.0290
     35 H           3.3335    1.3800    0.0000 H       1  UNL1        0.0290
     36 H          10.9893    0.0950    0.0000 H       1  UNL1        0.0598
     37 H           2.4675   -0.0699    0.0000 H       1  UNL1        0.0263
     38 H           3.2646   -0.0699    0.0000 H       1  UNL1        0.0263
     39 H          12.7908    1.3800    0.0000 H       1  UNL1        0.0403
     40 H          11.9938    1.3800    0.0000 H       1  UNL1        0.0403
     41 H           4.0611   -0.9050    0.0000 H       1  UNL1        0.2098
     42 H           2.3100    1.4419    0.0000 H       1  UNL1        0.0230
     43 H           1.4631    1.2150    0.0000 H       1  UNL1        0.0230
     44 H           1.6900    0.3681    0.0000 H       1  UNL1        0.0230
     45 H          10.9893   -0.9050    0.0000 H       1  UNL1        0.2098
     46 H          14.6613    0.5950    0.0000 H       1  UNL1        0.2951
@<TRIPOS>BOND
     1     1    11    1
     2     1    41    1
     3     2    14    1
     4     2    45    1
     5     3    18    1
     6     3    46    1
     7     4    18    2
     8     5     6    1
     9     5     7    1
    10     5    19    1
    11     5    20    1
    12     6     8    1
    13     6    21    1
    14     6    22    1
    15     7     9    1
    16     7    23    1
    17     7    24    1
    18     8    10    1
    19     8    25    1
    20     8    26    1
    21     9    11    1
    22     9    27    1
    23     9    28    1
    24    10    12    1
    25    10    29    1
    26    10    30    1
    27    11    13    1
    28    11    31    1
    29    12    14    1
    30    12    32    1
    31    12    33    1
    32    13    15    1
    33    13    34    1
    34    13    35    1
    35    14    16    1
    36    14    36    1
    37    15    17    1
    38    15    37    1
    39    15    38    1
    40    16    18    1
    41    16    39    1
    42    16    40    1
    43    17    42    1
    44    17    43    1
    45    17    44    1
