@<TRIPOS>MOLECULE
IMPHY017731
 33 32 0 0 0
SMALL
GASTEIGER

@<TRIPOS>ATOM
      1 O           7.1962    0.2500    0.0000 O.3     1  UNL1       -0.4338
      2 O           8.0622   -1.2500    0.0000 O.2     1  UNL1       -0.2501
      3 C           8.9282    0.2500    0.0000 C.3     1  UNL1        0.0538
      4 C           9.7942   -0.2500    0.0000 C.3     1  UNL1       -0.0432
      5 C           3.7320    0.2500    0.0000 C.3     1  UNL1       -0.0498
      6 C           4.5981   -0.2500    0.0000 C.3     1  UNL1       -0.0316
      7 C           8.9282    1.2500    0.0000 C.3     1  UNL1       -0.0523
      8 C           2.8660   -0.2500    0.0000 C.3     1  UNL1       -0.0556
      9 C           8.0622   -0.2500    0.0000 C.2     1  UNL1        0.3146
     10 C          10.6603    0.2500    0.0000 C.3     1  UNL1       -0.0645
     11 C           5.4641    0.2500    0.0000 C.2     1  UNL1       -0.0490
     12 C           2.0000    0.2500    0.0000 C.3     1  UNL1       -0.0653
     13 C           6.3301   -0.2500    0.0000 C.2     1  UNL1        0.0917
     14 H           9.4651    0.5600    0.0000 H       1  UNL1        0.0411
     15 H           9.3957   -0.7249    0.0000 H       1  UNL1        0.0270
     16 H          10.1928   -0.7249    0.0000 H       1  UNL1        0.0270
     17 H           4.1306    0.7249    0.0000 H       1  UNL1        0.0268
     18 H           3.3335    0.7249    0.0000 H       1  UNL1        0.0268
     19 H           4.1996   -0.7249    0.0000 H       1  UNL1        0.0308
     20 H           4.9966   -0.7249    0.0000 H       1  UNL1        0.0308
     21 H           9.5482    1.2500    0.0000 H       1  UNL1        0.0238
     22 H           8.9282    1.8700    0.0000 H       1  UNL1        0.0238
     23 H           8.3082    1.2500    0.0000 H       1  UNL1        0.0238
     24 H           2.4675   -0.7249    0.0000 H       1  UNL1        0.0263
     25 H           3.2646   -0.7249    0.0000 H       1  UNL1        0.0263
     26 H          10.9703   -0.2869    0.0000 H       1  UNL1        0.0230
     27 H          11.1972    0.5600    0.0000 H       1  UNL1        0.0230
     28 H          10.3503    0.7869    0.0000 H       1  UNL1        0.0230
     29 H           5.4641    0.8700    0.0000 H       1  UNL1        0.0602
     30 H           2.3100    0.7869    0.0000 H       1  UNL1        0.0230
     31 H           1.4631    0.5600    0.0000 H       1  UNL1        0.0230
     32 H           1.6900   -0.2869    0.0000 H       1  UNL1        0.0230
     33 H           6.3301   -0.8700    0.0000 H       1  UNL1        0.1027
@<TRIPOS>BOND
     1     1     9    1
     2     1    13    1
     3     2     9    2
     4     3     4    1
     5     3     7    1
     6     3     9    1
     7     3    14    1
     8     4    10    1
     9     4    15    1
    10     4    16    1
    11     5     6    1
    12     5     8    1
    13     5    17    1
    14     5    18    1
    15     6    11    1
    16     6    19    1
    17     6    20    1
    18     7    21    1
    19     7    22    1
    20     7    23    1
    21     8    12    1
    22     8    24    1
    23     8    25    1
    24    10    26    1
    25    10    27    1
    26    10    28    1
    27    11    13    2
    28    11    29    1
    29    12    30    1
    30    12    31    1
    31    12    32    1
    32    13    33    1
