@<TRIPOS>MOLECULE
IMPHY015831
 27 28 0 0 0
SMALL
GASTEIGER

@<TRIPOS>ATOM
      1 P           2.8660    0.5000    0.0000 P.3     1  UNL1       -0.0470
      2 C           2.8660   -0.5000    0.0000 C.ar    1  UNL1       -0.0192
      3 C           3.7320    1.0000    0.0000 C.ar    1  UNL1       -0.0192
      4 C           2.0000    1.0000    0.0000 C.3     1  UNL1       -0.0364
      5 C           2.0000   -1.0000    0.0000 C.ar    1  UNL1       -0.0538
      6 C           3.7320    2.0000    0.0000 C.ar    1  UNL1       -0.0538
      7 C           3.7320   -1.0000    0.0000 C.ar    1  UNL1       -0.0538
      8 C           4.5981    0.5000    0.0000 C.ar    1  UNL1       -0.0538
      9 C           2.0000   -2.0000    0.0000 C.ar    1  UNL1       -0.0612
     10 C           4.5981    2.5000    0.0000 C.ar    1  UNL1       -0.0612
     11 C           3.7320   -2.0000    0.0000 C.ar    1  UNL1       -0.0612
     12 C           5.4641    1.0000    0.0000 C.ar    1  UNL1       -0.0612
     13 C           2.8660   -2.5000    0.0000 C.ar    1  UNL1       -0.0617
     14 C           5.4641    2.0000    0.0000 C.ar    1  UNL1       -0.0617
     15 H           2.3100    1.5369    0.0000 H       1  UNL1        0.0283
     16 H           1.4631    1.3100    0.0000 H       1  UNL1        0.0283
     17 H           1.6900    0.4631    0.0000 H       1  UNL1        0.0283
     18 H           1.4631   -0.6900    0.0000 H       1  UNL1        0.0624
     19 H           3.1951    2.3100    0.0000 H       1  UNL1        0.0624
     20 H           4.2690   -0.6900    0.0000 H       1  UNL1        0.0624
     21 H           4.5981   -0.1200    0.0000 H       1  UNL1        0.0624
     22 H           1.4631   -2.3100    0.0000 H       1  UNL1        0.0618
     23 H           4.5981    3.1200    0.0000 H       1  UNL1        0.0618
     24 H           4.2690   -2.3100    0.0000 H       1  UNL1        0.0618
     25 H           6.0010    0.6900    0.0000 H       1  UNL1        0.0618
     26 H           2.8660   -3.1200    0.0000 H       1  UNL1        0.0618
     27 H           6.0010    2.3100    0.0000 H       1  UNL1        0.0618
@<TRIPOS>BOND
     1     1     2    1
     2     1     3    1
     3     1     4    1
     4     2     5   ar
     5     2     7   ar
     6     3     6   ar
     7     3     8   ar
     8     4    15    1
     9     4    16    1
    10     4    17    1
    11     5     9   ar
    12     5    18    1
    13     6    10   ar
    14     6    19    1
    15     7    11   ar
    16     7    20    1
    17     8    12   ar
    18     8    21    1
    19     9    13   ar
    20     9    22    1
    21    10    14   ar
    22    10    23    1
    23    11    13   ar
    24    11    24    1
    25    12    14   ar
    26    12    25    1
    27    13    26    1
    28    14    27    1
