@<TRIPOS>MOLECULE
IMPHY009687
 52 53 0 0 0
SMALL
GASTEIGER

@<TRIPOS>ATOM
      1 C           4.5981    1.0468    0.0000 C.3     1  UNL1       -0.0222
      2 C           4.5981    2.0468    0.0000 C.3     1  UNL1       -0.0296
      3 C           5.4920    2.5815    0.0000 C.3     1  UNL1       -0.0315
      4 C           3.7320    0.5468    0.0000 C.3     1  UNL1       -0.0142
      5 C           5.4920    0.5121    0.0000 C.3     1  UNL1       -0.0468
      6 C           3.7320    2.5468    0.0000 C.3     1  UNL1       -0.0455
      7 C           6.3981    2.0676    0.0000 C.3     1  UNL1       -0.0476
      8 C           6.3981    1.0260    0.0000 C.3     1  UNL1       -0.0520
      9 C           4.5981    0.0468    0.0000 C.3     1  UNL1       -0.0587
     10 C           2.8660    2.0468    0.0000 C.3     1  UNL1       -0.0314
     11 C           2.8660    1.0468    0.0000 C.2     1  UNL1       -0.0730
     12 C           3.7320   -0.4532    0.0000 C.3     1  UNL1       -0.0420
     13 C           5.9820    3.4532    0.0000 C.3     1  UNL1       -0.0595
     14 C           4.9820    3.4416    0.0000 C.3     1  UNL1       -0.0595
     15 C           2.8660   -0.9532    0.0000 C.3     1  UNL1       -0.0277
     16 C           2.0000    0.5468    0.0000 C.2     1  UNL1       -0.0992
     17 C           2.8660   -1.9532    0.0000 C.2     1  UNL1       -0.0550
     18 C           2.0000   -2.4532    0.0000 C.2     1  UNL1       -0.0662
     19 C           3.7320   -2.4532    0.0000 C.2     1  UNL1       -0.0955
     20 C           2.0000   -3.4532    0.0000 C.2     1  UNL1       -0.0985
     21 H           4.5915    2.8968    0.0000 H       1  UNL1        0.0311
     22 H           3.1951    0.2368    0.0000 H       1  UNL1        0.0351
     23 H           5.0874    0.0423    0.0000 H       1  UNL1        0.0271
     24 H           5.8856    0.0331    0.0000 H       1  UNL1        0.0271
     25 H           4.1306    3.0217    0.0000 H       1  UNL1        0.0271
     26 H           3.3335    3.0217    0.0000 H       1  UNL1        0.0271
     27 H           7.0089    1.9615    0.0000 H       1  UNL1        0.0271
     28 H           6.6071    2.6513    0.0000 H       1  UNL1        0.0271
     29 H           6.6071    0.4423    0.0000 H       1  UNL1        0.0266
     30 H           7.0089    1.1321    0.0000 H       1  UNL1        0.0266
     31 H           3.9781    0.0468    0.0000 H       1  UNL1        0.0235
     32 H           4.5981   -0.5732    0.0000 H       1  UNL1        0.0235
     33 H           5.2181    0.0468    0.0000 H       1  UNL1        0.0235
     34 H           2.6540    2.6294    0.0000 H       1  UNL1        0.0310
     35 H           2.2554    1.9391    0.0000 H       1  UNL1        0.0310
     36 H           3.9441   -1.0358    0.0000 H       1  UNL1        0.0274
     37 H           4.3426   -0.3455    0.0000 H       1  UNL1        0.0274
     38 H           6.5225    3.1494    0.0000 H       1  UNL1        0.0235
     39 H           6.2857    3.9937    0.0000 H       1  UNL1        0.0235
     40 H           5.4415    3.7570    0.0000 H       1  UNL1        0.0235
     41 H           5.5154    3.7578    0.0000 H       1  UNL1        0.0235
     42 H           4.6658    3.9750    0.0000 H       1  UNL1        0.0235
     43 H           4.4487    3.1254    0.0000 H       1  UNL1        0.0235
     44 H           2.6540   -0.3706    0.0000 H       1  UNL1        0.0313
     45 H           2.2554   -1.0609    0.0000 H       1  UNL1        0.0313
     46 H           1.4631    0.8568    0.0000 H       1  UNL1        0.0534
     47 H           2.0000   -0.0732    0.0000 H       1  UNL1        0.0534
     48 H           1.4631   -2.1432    0.0000 H       1  UNL1        0.0614
     49 H           3.7320   -3.0732    0.0000 H       1  UNL1        0.0537
     50 H           4.2690   -2.1432    0.0000 H       1  UNL1        0.0537
     51 H           1.4631   -3.7632    0.0000 H       1  UNL1        0.0535
     52 H           2.5369   -3.7632    0.0000 H       1  UNL1        0.0535
@<TRIPOS>BOND
     1     1     2    1
     2     1     4    1
     3     1     5    1
     4     1     9    1
     5     2     3    1
     6     2     6    1
     7     2    21    1
     8     3     7    1
     9     3    13    1
    10     3    14    1
    11     4    11    1
    12     4    12    1
    13     4    22    1
    14     5     8    1
    15     5    23    1
    16     5    24    1
    17     6    10    1
    18     6    25    1
    19     6    26    1
    20     7     8    1
    21     7    27    1
    22     7    28    1
    23     8    29    1
    24     8    30    1
    25     9    31    1
    26     9    32    1
    27     9    33    1
    28    10    11    1
    29    10    34    1
    30    10    35    1
    31    11    16    2
    32    12    15    1
    33    12    36    1
    34    12    37    1
    35    13    38    1
    36    13    39    1
    37    13    40    1
    38    14    41    1
    39    14    42    1
    40    14    43    1
    41    15    17    1
    42    15    44    1
    43    15    45    1
    44    16    46    1
    45    16    47    1
    46    17    18    1
    47    17    19    2
    48    18    20    2
    49    18    48    1
    50    19    49    1
    51    19    50    1
    52    20    51    1
    53    20    52    1
