@<TRIPOS>MOLECULE
IMPHY004085
 29 32 0 0 0
SMALL
GASTEIGER

@<TRIPOS>ATOM
      1 O           2.8068   -1.6972    0.0000 O.3     1  UNL1       -0.4899
      2 O           4.4638   -2.9011    0.0000 O.2     1  UNL1       -0.2816
      3 N           4.7967    0.1501    0.0000 N.ar    1  UNL1       -0.3097
      4 N           6.4165   -1.9209    0.0000 N.ar    1  UNL1       -0.2495
      5 C           5.6057   -0.4377    0.0000 C.ar    1  UNL1        0.0839
      6 C           6.4147    0.1501    0.0000 C.ar    1  UNL1        0.0116
      7 C           5.1057    1.1011    0.0000 C.ar    1  UNL1        0.0545
      8 C           6.1057    1.1011    0.0000 C.ar    1  UNL1        0.0080
      9 C           5.5128   -1.4752    0.0000 C.ar    1  UNL1        0.1384
     10 C           3.8387   -0.2589    0.0000 C.ar    1  UNL1        0.0560
     11 C           7.2710   -0.3809    0.0000 C.ar    1  UNL1       -0.0338
     12 C           4.5711    1.9950    0.0000 C.ar    1  UNL1       -0.0372
     13 C           6.6404    1.9950    0.0000 C.ar    1  UNL1       -0.0520
     14 C           4.5646   -1.9062    0.0000 C.ar    1  UNL1        0.2488
     15 C           3.7218   -1.2940    0.0000 C.ar    1  UNL1        0.1852
     16 C           7.2719   -1.3885    0.0000 C.ar    1  UNL1        0.0291
     17 C           5.0849    2.9011    0.0000 C.ar    1  UNL1       -0.0598
     18 C           6.1265    2.9011    0.0000 C.ar    1  UNL1       -0.0611
     19 C           2.0000   -1.1063    0.0000 C.3     1  UNL1        0.0790
     20 H           3.3414    0.1113    0.0000 H       1  UNL1        0.0851
     21 H           7.8127   -0.0792    0.0000 H       1  UNL1        0.0639
     22 H           3.9511    1.9879    0.0000 H       1  UNL1        0.0638
     23 H           7.2604    1.9879    0.0000 H       1  UNL1        0.0624
     24 H           7.8140   -1.6893    0.0000 H       1  UNL1        0.0830
     25 H           4.7728    3.4369    0.0000 H       1  UNL1        0.0618
     26 H           6.4386    3.4369    0.0000 H       1  UNL1        0.0618
     27 H           2.3664   -0.6061    0.0000 H       1  UNL1        0.0660
     28 H           1.4998   -0.7399    0.0000 H       1  UNL1        0.0660
     29 H           1.6336   -1.6064    0.0000 H       1  UNL1        0.0660
@<TRIPOS>BOND
     1     1    15    1
     2     1    19    1
     3     2    14    2
     4     3     5   ar
     5     3     7   ar
     6     3    10   ar
     7     4     9   ar
     8     4    16   ar
     9     5     6   ar
    10     5     9   ar
    11     6     8   ar
    12     6    11   ar
    13     7     8   ar
    14     7    12   ar
    15     8    13   ar
    16     9    14   ar
    17    10    15   ar
    18    10    20    1
    19    11    16   ar
    20    11    21    1
    21    12    17   ar
    22    12    22    1
    23    13    18   ar
    24    13    23    1
    25    14    15   ar
    26    16    24    1
    27    17    18   ar
    28    17    25    1
    29    18    26    1
    30    19    27    1
    31    19    28    1
    32    19    29    1
