@<TRIPOS>MOLECULE
IMPHY005094
 58 62 0 0 0
SMALL
GASTEIGER

@<TRIPOS>ATOM
      1 O           2.8257    2.0527    0.0000 O.3     1  UNL1       -0.3671
      2 O           3.5216   -0.9118    0.0000 O.3     1  UNL1       -0.3848
      3 O           5.0913    2.0777    0.0000 O.3     1  UNL1       -0.3881
      4 O           4.0622   -1.8389    0.0000 O.3     1  UNL1       -0.3863
      5 O           5.5570   -2.0826    0.0000 O.3     1  UNL1       -0.3886
      6 O           7.9114   -1.8883    0.0000 O.3     1  UNL1       -0.3886
      7 C           4.3697    0.8782    0.0000 C.3     1  UNL1        0.0484
      8 C           3.9497   -0.0081    0.0000 C.3     1  UNL1        0.1096
      9 C           6.1028   -0.4974    0.0000 C.3     1  UNL1        0.0076
     10 C           3.6590    1.5457    0.0000 C.3     1  UNL1        0.0940
     11 C           6.0978    0.5026    0.0000 C.3     1  UNL1       -0.0038
     12 C           2.9831    0.1192    0.0000 C.3     1  UNL1        0.0255
     13 C           2.8038    1.0775    0.0000 C.3     1  UNL1        0.0935
     14 C           5.3239    1.1051    0.0000 C.3     1  UNL1        0.0747
     15 C           4.3785   -0.8902    0.0000 C.3     1  UNL1        0.1111
     16 C           5.3349   -1.1075    0.0000 C.3     1  UNL1        0.0898
     17 C           7.1136    0.1145    0.0000 C.3     1  UNL1       -0.0391
     18 C           8.2909    0.0136    0.0000 C.3     1  UNL1       -0.0118
     19 C           6.8877   -1.1169    0.0000 C.3     1  UNL1       -0.0155
     20 C           7.8615   -0.8896    0.0000 C.3     1  UNL1        0.0667
     21 C           6.8765    1.1300    0.0000 C.3     1  UNL1       -0.0467
     22 C           7.8526    0.9124    0.0000 C.3     1  UNL1       -0.0472
     23 C           2.0000   -0.0639    0.0000 C.3     1  UNL1       -0.0546
     24 C           2.8534   -0.8724    0.0000 C.3     1  UNL1       -0.0546
     25 C           5.9392    1.8934    0.0000 C.3     1  UNL1       -0.0354
     26 C           8.8268   -1.1508    0.0000 C.3     1  UNL1       -0.0358
     27 H           4.9047    0.2178    0.0000 H       1  UNL1        0.0384
     28 H           4.0344    2.0392    0.0000 H       1  UNL1        0.0627
     29 H           6.0936    1.3526    0.0000 H       1  UNL1        0.0335
     30 H           2.1858    1.0272    0.0000 H       1  UNL1        0.0628
     31 H           4.7640   -0.4046    0.0000 H       1  UNL1        0.0648
     32 H           5.9199   -1.3129    0.0000 H       1  UNL1        0.0626
     33 H           7.3546    0.6858    0.0000 H       1  UNL1        0.0275
     34 H           6.6446    0.5200    0.0000 H       1  UNL1        0.0275
     35 H           9.1186    0.2068    0.0000 H       1  UNL1        0.0329
     36 H           6.4049   -1.5059    0.0000 H       1  UNL1        0.0299
     37 H           7.1595   -1.6742    0.0000 H       1  UNL1        0.0299
     38 H           7.1427    1.6899    0.0000 H       1  UNL1        0.0269
     39 H           6.3899    1.5142    0.0000 H       1  UNL1        0.0269
     40 H           8.4563    1.0533    0.0000 H       1  UNL1        0.0269
     41 H           7.8494    1.5323    0.0000 H       1  UNL1        0.0269
     42 H           1.8865    0.5456    0.0000 H       1  UNL1        0.0237
     43 H           1.3905   -0.1774    0.0000 H       1  UNL1        0.0237
     44 H           2.2387   -0.7920    0.0000 H       1  UNL1        0.0237
     45 H           2.7730   -1.4872    0.0000 H       1  UNL1        0.0237
     46 H           3.4682   -0.9528    0.0000 H       1  UNL1        0.0237
     47 H           2.1135   -0.6734    0.0000 H       1  UNL1        0.0237
     48 H           6.4280    1.5118    0.0000 H       1  UNL1        0.0257
     49 H           6.3208    2.3821    0.0000 H       1  UNL1        0.0257
     50 H           5.4505    2.2749    0.0000 H       1  UNL1        0.0257
     51 H           3.3574   -1.5097    0.0000 H       1  UNL1        0.2103
     52 H           5.5414    2.5041    0.0000 H       1  UNL1        0.2102
     53 H           8.6648   -1.7493    0.0000 H       1  UNL1        0.0257
     54 H           9.4253   -1.3128    0.0000 H       1  UNL1        0.0257
     55 H           8.9888   -0.5523    0.0000 H       1  UNL1        0.0257
     56 H           4.4736   -2.3028    0.0000 H       1  UNL1        0.2100
     57 H           5.1024   -2.5041    0.0000 H       1  UNL1        0.2099
     58 H           8.4631   -2.1712    0.0000 H       1  UNL1        0.2102
@<TRIPOS>BOND
     1    10     1    1
     2    13     1    1
     3     8     2    1
     4     2    51    1
     5    14     3    1
     6     3    52    1
     7    15     4    1
     8     4    56    1
     9    16     5    1
    10     5    57    1
    11    20     6    1
    12     6    58    1
    13     7     8    1
    14     7    10    1
    15     7    14    1
    16     7    27    1
    17     8    12    1
    18     8    15    1
    19     9    11    1
    20     9    16    1
    21     9    17    1
    22     9    19    1
    23    10    13    1
    24    10    28    1
    25    11    14    1
    26    11    21    1
    27    11    29    1
    28    12    13    1
    29    12    23    1
    30    12    24    1
    31    13    30    1
    32    14    25    1
    33    15    16    1
    34    15    31    1
    35    16    32    1
    36    17    18    1
    37    17    33    1
    38    17    34    1
    39    18    20    1
    40    18    22    1
    41    18    35    1
    42    19    20    1
    43    19    36    1
    44    19    37    1
    45    20    26    1
    46    21    22    1
    47    21    38    1
    48    21    39    1
    49    22    40    1
    50    22    41    1
    51    23    42    1
    52    23    43    1
    53    23    47    1
    54    24    44    1
    55    24    45    1
    56    24    46    1
    57    25    48    1
    58    25    49    1
    59    25    50    1
    60    26    53    1
    61    26    54    1
    62    26    55    1
