@<TRIPOS>MOLECULE
IMPHY002853
 38 41 0 0 0
SMALL
GASTEIGER

@<TRIPOS>ATOM
      1 O           5.5301   -0.7621    0.0000 O.2     1  UNL1       -0.4545
      2 O           9.9404   -0.4573    0.0000 O.3     1  UNL1       -0.4526
      3 O           9.9404   -2.0668    0.0000 O.3     1  UNL1       -0.4526
      4 O           2.0000    1.2621    0.0000 O.3     1  UNL1       -0.4914
      5 O           2.0000   -0.7862    0.0000 O.3     1  UNL1       -0.4913
      6 O           5.5301    2.2379    0.0000 O.2     1  UNL1       -0.2870
      7 C           7.2622   -0.7621    0.0000 C.ar    1  UNL1        0.0211
      8 C           6.3961   -0.2621    0.0000 C.ar    1  UNL1        0.1393
      9 C           4.6641    0.7379    0.0000 C.ar    1  UNL1        0.0677
     10 C           4.6641   -0.2621    0.0000 C.ar    1  UNL1        0.1429
     11 C           8.9942   -0.7621    0.0000 C.ar    1  UNL1        0.1669
     12 C           8.1282   -0.2621    0.0000 C.ar    1  UNL1       -0.0055
     13 C           8.9942   -1.7621    0.0000 C.ar    1  UNL1        0.1663
     14 C           6.3961    0.7379    0.0000 C.ar    1  UNL1        0.0287
     15 C           5.5301    1.2379    0.0000 C.ar    1  UNL1        0.1932
     16 C           7.2622   -1.7621    0.0000 C.ar    1  UNL1       -0.0474
     17 C           3.7702    1.2726    0.0000 C.ar    1  UNL1       -0.0020
     18 C           3.7702   -0.7967    0.0000 C.ar    1  UNL1        0.0267
     19 C           8.1282   -2.2621    0.0000 C.ar    1  UNL1       -0.0155
     20 C           2.8641    0.7587    0.0000 C.ar    1  UNL1        0.1624
     21 C           2.8641   -0.2829    0.0000 C.ar    1  UNL1        0.1650
     22 C          10.5241   -1.2621    0.0000 C.3     1  UNL1        0.2332
     23 C           2.0038    2.2621    0.0000 C.3     1  UNL1        0.0790
     24 C           2.0038   -1.7862    0.0000 C.3     1  UNL1        0.0790
     25 H           8.1282    0.3579    0.0000 H       1  UNL1        0.0662
     26 H           6.9331    1.0479    0.0000 H       1  UNL1        0.0693
     27 H           6.7252   -2.0721    0.0000 H       1  UNL1        0.0626
     28 H           3.7773    1.8926    0.0000 H       1  UNL1        0.0663
     29 H           3.7773   -1.4167    0.0000 H       1  UNL1        0.0692
     30 H           8.1282   -2.8821    0.0000 H       1  UNL1        0.0655
     31 H          10.9849   -1.6768    0.0000 H       1  UNL1        0.1166
     32 H          10.9849   -0.8473    0.0000 H       1  UNL1        0.1166
     33 H           2.6238    2.2597    0.0000 H       1  UNL1        0.0660
     34 H           2.0062    2.8821    0.0000 H       1  UNL1        0.0660
     35 H           1.3839    2.2645    0.0000 H       1  UNL1        0.0660
     36 H           1.3839   -1.7886    0.0000 H       1  UNL1        0.0660
     37 H           2.0062   -2.4062    0.0000 H       1  UNL1        0.0660
     38 H           2.6238   -1.7838    0.0000 H       1  UNL1        0.0660
@<TRIPOS>BOND
     1     1     8   ar
     2     1    10   ar
     3     2    11    1
     4     2    22    1
     5     3    13    1
     6     3    22    1
     7     4    20    1
     8     4    23    1
     9     5    21    1
    10     5    24    1
    11     6    15    2
    12     7     8    1
    13     7    12   ar
    14     7    16   ar
    15     8    14   ar
    16     9    10   ar
    17     9    15   ar
    18     9    17   ar
    19    10    18   ar
    20    11    12   ar
    21    11    13   ar
    22    12    25    1
    23    13    19   ar
    24    14    15   ar
    25    14    26    1
    26    16    19   ar
    27    16    27    1
    28    17    20   ar
    29    17    28    1
    30    18    21   ar
    31    18    29    1
    32    19    30    1
    33    20    21   ar
    34    22    31    1
    35    22    32    1
    36    23    33    1
    37    23    34    1
    38    23    35    1
    39    24    36    1
    40    24    37    1
    41    24    38    1
