@<TRIPOS>MOLECULE
IMPHY004451
 59 64 0 0 0
SMALL
GASTEIGER

@<TRIPOS>ATOM
      1 O           6.4005    3.5000    0.0000 O.2     1  UNL1       -0.2864
      2 O           6.4005   -3.5000    0.0000 O.2     1  UNL1       -0.2864
      3 O           4.6521    3.5346    0.0000 O.3     1  UNL1       -0.5060
      4 O           8.1489   -3.5346    0.0000 O.3     1  UNL1       -0.5060
      5 O           8.1489    3.5346    0.0000 O.3     1  UNL1       -0.5060
      6 O           4.6521   -3.5346    0.0000 O.3     1  UNL1       -0.5060
      7 O           2.0024    0.9725    0.0000 O.3     1  UNL1       -0.3904
      8 O          10.7985   -0.9725    0.0000 O.3     1  UNL1       -0.4771
      9 O           9.9267    0.5241    0.0000 O.2     1  UNL1       -0.2451
     10 C           6.4005    0.5000    0.0000 C.3     1  UNL1        0.0216
     11 C           6.4005   -0.5000    0.0000 C.3     1  UNL1        0.0217
     12 C           5.5344    1.0000    0.0000 C.ar    1  UNL1       -0.0244
     13 C           7.2665   -1.0000    0.0000 C.ar    1  UNL1       -0.0240
     14 C           7.2665    1.0000    0.0000 C.ar    1  UNL1       -0.0247
     15 C           5.5344   -1.0000    0.0000 C.ar    1  UNL1       -0.0247
     16 C           5.5344    2.0000    0.0000 C.ar    1  UNL1        0.0675
     17 C           7.2665   -2.0000    0.0000 C.ar    1  UNL1        0.0675
     18 C           7.2665    2.0000    0.0000 C.ar    1  UNL1        0.0675
     19 C           5.5344   -2.0000    0.0000 C.ar    1  UNL1        0.0675
     20 C           6.4005    2.5000    0.0000 C.2     1  UNL1        0.2007
     21 C           6.4005   -2.5000    0.0000 C.2     1  UNL1        0.2007
     22 C           4.6405    0.4653    0.0000 C.ar    1  UNL1       -0.0517
     23 C           8.1604   -0.4653    0.0000 C.ar    1  UNL1       -0.0431
     24 C           8.1604    0.4653    0.0000 C.ar    1  UNL1       -0.0571
     25 C           4.6405   -0.4653    0.0000 C.ar    1  UNL1       -0.0571
     26 C           4.6405    2.5347    0.0000 C.ar    1  UNL1        0.1283
     27 C           8.1604   -2.5347    0.0000 C.ar    1  UNL1        0.1287
     28 C           3.7344    0.9792    0.0000 C.ar    1  UNL1       -0.0184
     29 C           8.1604    2.5347    0.0000 C.ar    1  UNL1        0.1279
     30 C           4.6405   -2.5347    0.0000 C.ar    1  UNL1        0.1279
     31 C           9.0665   -0.9792    0.0000 C.ar    1  UNL1        0.0626
     32 C           3.7344    2.0208    0.0000 C.ar    1  UNL1       -0.0141
     33 C           9.0665    0.9792    0.0000 C.ar    1  UNL1       -0.0580
     34 C           3.7344   -0.9792    0.0000 C.ar    1  UNL1       -0.0580
     35 C           9.0665   -2.0208    0.0000 C.ar    1  UNL1       -0.0055
     36 C           9.0665    2.0208    0.0000 C.ar    1  UNL1       -0.0194
     37 C           3.7344   -2.0208    0.0000 C.ar    1  UNL1       -0.0194
     38 C           2.8703    0.4758    0.0000 C.3     1  UNL1        0.0694
     39 C           9.9306   -0.4758    0.0000 C.2     1  UNL1        0.3369
     40 H           6.9374    0.1900    0.0000 H       1  UNL1        0.0407
     41 H           5.8635   -0.1900    0.0000 H       1  UNL1        0.0407
     42 H           4.6477   -0.1546    0.0000 H       1  UNL1        0.0624
     43 H           8.1533    0.1546    0.0000 H       1  UNL1        0.0629
     44 H           8.1533   -0.1546    0.0000 H       1  UNL1        0.0621
     45 H           4.6477    0.1546    0.0000 H       1  UNL1        0.0621
     46 H           3.1987    2.3329    0.0000 H       1  UNL1        0.0658
     47 H           9.6022    0.6671    0.0000 H       1  UNL1        0.0619
     48 H           3.1987   -0.6671    0.0000 H       1  UNL1        0.0619
     49 H           9.6022   -2.3329    0.0000 H       1  UNL1        0.0662
     50 H           9.6022    2.3329    0.0000 H       1  UNL1        0.0654
     51 H           3.1987   -2.3329    0.0000 H       1  UNL1        0.0654
     52 H           2.4736   -0.0006    0.0000 H       1  UNL1        0.0607
     53 H           3.2707    0.0024    0.0000 H       1  UNL1        0.0607
     54 H           4.1187    3.8508    0.0000 H       1  UNL1        0.2922
     55 H           8.6822   -3.8508    0.0000 H       1  UNL1        0.2922
     56 H           8.6822    3.8508    0.0000 H       1  UNL1        0.2922
     57 H           4.1187   -3.8508    0.0000 H       1  UNL1        0.2922
     58 H           2.0000    1.5925    0.0000 H       1  UNL1        0.2098
     59 H          11.3343   -0.6604    0.0000 H       1  UNL1        0.2954
@<TRIPOS>BOND
     1     1    20    2
     2     2    21    2
     3     3    26    1
     4     3    54    1
     5     4    27    1
     6     4    55    1
     7     5    29    1
     8     5    56    1
     9     6    30    1
    10     6    57    1
    11     7    38    1
    12     7    58    1
    13     8    39    1
    14     8    59    1
    15     9    39    2
    16    10    11    1
    17    10    12    1
    18    10    14    1
    19    10    40    1
    20    11    13    1
    21    11    15    1
    22    11    41    1
    23    12    16   ar
    24    12    22   ar
    25    13    17   ar
    26    13    23   ar
    27    14    18   ar
    28    14    24   ar
    29    15    19   ar
    30    15    25   ar
    31    16    20    1
    32    16    26   ar
    33    17    21    1
    34    17    27   ar
    35    18    20    1
    36    18    29   ar
    37    19    21    1
    38    19    30   ar
    39    22    28   ar
    40    22    42    1
    41    23    31   ar
    42    23    43    1
    43    24    33   ar
    44    24    44    1
    45    25    34   ar
    46    25    45    1
    47    26    32   ar
    48    27    35   ar
    49    28    32   ar
    50    28    38    1
    51    29    36   ar
    52    30    37   ar
    53    31    35   ar
    54    31    39    1
    55    32    46    1
    56    33    36   ar
    57    33    47    1
    58    34    37   ar
    59    34    48    1
    60    35    49    1
    61    36    50    1
    62    37    51    1
    63    38    52    1
    64    38    53    1
