@<TRIPOS>MOLECULE
IMPHY004359
 34 36 0 0 0
SMALL
GASTEIGER

@<TRIPOS>ATOM
      1 O           6.0682   -2.2327    0.0000 O.2     1  UNL1       -0.4620
      2 O           8.6663   -1.7327    0.0000 O.3     1  UNL1       -0.5028
      3 O          10.3984    1.2673    0.0000 O.3     1  UNL1       -0.4913
      4 O           6.0682    0.7673    0.0000 O.2     1  UNL1       -0.2864
      5 O          10.3984   -0.7327    0.0000 O.3     1  UNL1       -0.5009
      6 O           2.5381   -2.2568    0.0000 O.3     1  UNL1       -0.5066
      7 C           6.9343   -0.7327    0.0000 C.ar    1  UNL1        0.0679
      8 C           7.8003   -0.2327    0.0000 C.ar    1  UNL1        0.0341
      9 C           5.2022   -0.7327    0.0000 C.ar    1  UNL1        0.0648
     10 C           6.0682   -0.2327    0.0000 C.ar    1  UNL1        0.2003
     11 C           5.2022   -1.7327    0.0000 C.ar    1  UNL1        0.1419
     12 C           8.6663   -0.7327    0.0000 C.ar    1  UNL1        0.1701
     13 C           6.9343   -1.7327    0.0000 C.ar    1  UNL1        0.1040
     14 C           7.8003    0.7673    0.0000 C.ar    1  UNL1       -0.0466
     15 C           4.3083   -0.1980    0.0000 C.ar    1  UNL1       -0.0439
     16 C           9.5323   -0.2327    0.0000 C.ar    1  UNL1        0.2014
     17 C           4.3083   -2.2673    0.0000 C.ar    1  UNL1        0.0228
     18 C           9.5323    0.7673    0.0000 C.ar    1  UNL1        0.1650
     19 C           8.6663    1.2673    0.0000 C.ar    1  UNL1       -0.0155
     20 C           3.4022   -0.7119    0.0000 C.ar    1  UNL1       -0.0193
     21 C           3.4022   -1.7535    0.0000 C.ar    1  UNL1        0.1204
     22 C          10.3984    2.2673    0.0000 C.3     1  UNL1        0.0790
     23 H           7.4712   -2.0427    0.0000 H       1  UNL1        0.1037
     24 H           7.2634    1.0773    0.0000 H       1  UNL1        0.0626
     25 H           4.3154    0.4220    0.0000 H       1  UNL1        0.0627
     26 H           4.3154   -2.8873    0.0000 H       1  UNL1        0.0691
     27 H           8.6663    1.8873    0.0000 H       1  UNL1        0.0655
     28 H           2.8665   -0.3998    0.0000 H       1  UNL1        0.0654
     29 H           9.2033   -2.0427    0.0000 H       1  UNL1        0.2923
     30 H          10.9353   -0.4227    0.0000 H       1  UNL1        0.2924
     31 H           2.0000   -1.9489    0.0000 H       1  UNL1        0.2921
     32 H          11.0184    2.2673    0.0000 H       1  UNL1        0.0660
     33 H          10.3984    2.8873    0.0000 H       1  UNL1        0.0660
     34 H           9.7784    2.2673    0.0000 H       1  UNL1        0.0660
@<TRIPOS>BOND
     1     1    11   ar
     2     1    13   ar
     3     2    12    1
     4     2    29    1
     5     3    18    1
     6     3    22    1
     7     4    10    2
     8     5    16    1
     9     5    30    1
    10     6    21    1
    11     6    31    1
    12     7     8    1
    13     7    10   ar
    14     7    13   ar
    15     8    12   ar
    16     8    14   ar
    17     9    10   ar
    18     9    11   ar
    19     9    15   ar
    20    11    17   ar
    21    12    16   ar
    22    13    23    1
    23    14    19   ar
    24    14    24    1
    25    15    20   ar
    26    15    25    1
    27    16    18   ar
    28    17    21   ar
    29    17    26    1
    30    18    19   ar
    31    19    27    1
    32    20    21   ar
    33    20    28    1
    34    22    32    1
    35    22    33    1
    36    22    34    1
