@<TRIPOS>MOLECULE
IMPHY003425
 40 41 0 0 0
SMALL
GASTEIGER

@<TRIPOS>ATOM
      1 O           4.5981   -0.2500    0.0000 O.2     1  UNL1       -0.2529
      2 N           2.8660   -0.2500    0.0000 N.am    1  UNL1       -0.2966
      3 N           3.7320    1.2500    0.0000 N.am    1  UNL1       -0.2966
      4 C           2.8660   -1.2500    0.0000 C.3     1  UNL1        0.0246
      5 C           4.5981    1.7500    0.0000 C.3     1  UNL1        0.0246
      6 C           2.0000   -1.7500    0.0000 C.3     1  UNL1       -0.0345
      7 C           3.7320   -1.7500    0.0000 C.3     1  UNL1       -0.0345
      8 C           5.4641    1.2500    0.0000 C.3     1  UNL1       -0.0345
      9 C           4.5981    2.7500    0.0000 C.3     1  UNL1       -0.0345
     10 C           2.0000   -2.7500    0.0000 C.3     1  UNL1       -0.0514
     11 C           3.7320   -2.7500    0.0000 C.3     1  UNL1       -0.0514
     12 C           6.3301    1.7500    0.0000 C.3     1  UNL1       -0.0514
     13 C           5.4641    3.2500    0.0000 C.3     1  UNL1       -0.0514
     14 C           2.8660   -3.2500    0.0000 C.3     1  UNL1       -0.0529
     15 C           6.3301    2.7500    0.0000 C.3     1  UNL1       -0.0529
     16 C           3.7320    0.2500    0.0000 C.2     1  UNL1        0.3001
     17 H           3.4030   -0.9400    0.0000 H       1  UNL1        0.0499
     18 H           4.5981    1.1300    0.0000 H       1  UNL1        0.0499
     19 H           4.3860    3.3326    0.0000 H       1  UNL1        0.0283
     20 H           3.9875    2.6423    0.0000 H       1  UNL1        0.0283
     21 H           5.0656    0.7751    0.0000 H       1  UNL1        0.0283
     22 H           5.8626    0.7751    0.0000 H       1  UNL1        0.0283
     23 H           4.3426   -1.8577    0.0000 H       1  UNL1        0.0283
     24 H           3.9441   -1.1674    0.0000 H       1  UNL1        0.0283
     25 H           1.7880   -1.1674    0.0000 H       1  UNL1        0.0283
     26 H           1.3894   -1.8577    0.0000 H       1  UNL1        0.0283
     27 H           5.8626    3.7250    0.0000 H       1  UNL1        0.0266
     28 H           5.0656    3.7250    0.0000 H       1  UNL1        0.0266
     29 H           6.5422    1.1674    0.0000 H       1  UNL1        0.0266
     30 H           6.9407    1.8577    0.0000 H       1  UNL1        0.0266
     31 H           3.9441   -3.3326    0.0000 H       1  UNL1        0.0266
     32 H           4.3426   -2.6423    0.0000 H       1  UNL1        0.0266
     33 H           1.3894   -2.6423    0.0000 H       1  UNL1        0.0266
     34 H           1.7880   -3.3326    0.0000 H       1  UNL1        0.0266
     35 H           2.4675   -3.7250    0.0000 H       1  UNL1        0.0265
     36 H           3.2646   -3.7250    0.0000 H       1  UNL1        0.0265
     37 H           6.9407    2.6423    0.0000 H       1  UNL1        0.0265
     38 H           6.5422    3.3326    0.0000 H       1  UNL1        0.0265
     39 H           2.3291    0.0600    0.0000 H       1  UNL1        0.1505
     40 H           3.1951    1.5600    0.0000 H       1  UNL1        0.1505
@<TRIPOS>BOND
     1     1    16    2
     2     2     4    1
     3     2    16   am
     4     2    39    1
     5     3     5    1
     6     3    16   am
     7     3    40    1
     8     4     6    1
     9     4     7    1
    10     4    17    1
    11     5     8    1
    12     5     9    1
    13     5    18    1
    14     6    10    1
    15     6    25    1
    16     6    26    1
    17     7    11    1
    18     7    23    1
    19     7    24    1
    20     8    12    1
    21     8    21    1
    22     8    22    1
    23     9    13    1
    24     9    19    1
    25     9    20    1
    26    10    14    1
    27    10    33    1
    28    10    34    1
    29    11    14    1
    30    11    31    1
    31    11    32    1
    32    12    15    1
    33    12    29    1
    34    12    30    1
    35    13    15    1
    36    13    27    1
    37    13    28    1
    38    14    35    1
    39    14    36    1
    40    15    37    1
    41    15    38    1
