@<TRIPOS>MOLECULE
IMPHY002712
 29 32 0 0 0
SMALL
GASTEIGER

@<TRIPOS>ATOM
      1 O           2.8660   -0.5000    0.0000 O.2     1  UNL1       -0.4216
      2 O           4.5632    3.4990    0.0000 O.3     1  UNL1       -0.5067
      3 O           4.5632   -3.4990    0.0000 O.3     1  UNL1       -0.5066
      4 O           2.0000    1.0000    0.0000 O.2     1  UNL1       -0.2445
      5 C           4.5981    0.5000    0.0000 C.ar    1  UNL1        0.0033
      6 C           4.5981   -0.5000    0.0000 C.ar    1  UNL1        0.0290
      7 C           6.3981    0.5208    0.0000 C.3     1  UNL1       -0.0230
      8 C           6.3981   -0.5208    0.0000 C.3     1  UNL1       -0.0229
      9 C           5.4920    1.0347    0.0000 C.ar    1  UNL1       -0.0350
     10 C           5.4920   -1.0347    0.0000 C.ar    1  UNL1       -0.0324
     11 C           3.7320    1.0000    0.0000 C.ar    1  UNL1        0.0709
     12 C           3.7320   -1.0000    0.0000 C.ar    1  UNL1        0.1434
     13 C           5.4542    2.0256    0.0000 C.ar    1  UNL1       -0.0164
     14 C           5.4542   -2.0256    0.0000 C.ar    1  UNL1       -0.0162
     15 C           3.7308    1.9917    0.0000 C.ar    1  UNL1       -0.0056
     16 C           3.7308   -1.9917    0.0000 C.ar    1  UNL1        0.0229
     17 C           2.8660    0.5000    0.0000 C.ar    1  UNL1        0.3452
     18 C           4.5828    2.4991    0.0000 C.ar    1  UNL1        0.1179
     19 C           4.5828   -2.4991    0.0000 C.ar    1  UNL1        0.1206
     20 H           7.0089    0.4147    0.0000 H       1  UNL1        0.0317
     21 H           6.6071    1.1045    0.0000 H       1  UNL1        0.0317
     22 H           6.6071   -1.1045    0.0000 H       1  UNL1        0.0317
     23 H           7.0089   -0.4147    0.0000 H       1  UNL1        0.0317
     24 H           5.9810    2.3527    0.0000 H       1  UNL1        0.0657
     25 H           5.9810   -2.3527    0.0000 H       1  UNL1        0.0657
     26 H           3.1916    2.2977    0.0000 H       1  UNL1        0.0662
     27 H           3.1916   -2.2977    0.0000 H       1  UNL1        0.0691
     28 H           5.0939    3.8195    0.0000 H       1  UNL1        0.2921
     29 H           5.0939   -3.8195    0.0000 H       1  UNL1        0.2921
@<TRIPOS>BOND
     1     1    12   ar
     2     1    17   ar
     3     2    18    1
     4     2    28    1
     5     3    19    1
     6     3    29    1
     7     4    17    2
     8     5     6   ar
     9     5     9   ar
    10     5    11   ar
    11     6    10   ar
    12     6    12   ar
    13     7     8    1
    14     7     9    1
    15     7    20    1
    16     7    21    1
    17     8    10    1
    18     8    22    1
    19     8    23    1
    20     9    13   ar
    21    10    14   ar
    22    11    15   ar
    23    11    17   ar
    24    12    16   ar
    25    13    18   ar
    26    13    24    1
    27    14    19   ar
    28    14    25    1
    29    15    18   ar
    30    15    26    1
    31    16    19   ar
    32    16    27    1
