@<TRIPOS>MOLECULE
IMPHY009593
 22 21 0 0 0
SMALL
GASTEIGER

@<TRIPOS>ATOM
      1 S           4.5981   -0.2500    0.0000 S.3     1  UNL1       -0.0931
      2 S           5.4641    0.2500    0.0000 S.3     1  UNL1       -0.0931
      3 C           2.8660   -0.2500    0.0000 C.3     1  UNL1       -0.0461
      4 C           7.1962    0.2500    0.0000 C.3     1  UNL1       -0.0461
      5 C           3.7320    0.2500    0.0000 C.3     1  UNL1        0.0037
      6 C           6.3301   -0.2500    0.0000 C.3     1  UNL1        0.0037
      7 C           2.0000    0.2500    0.0000 C.3     1  UNL1       -0.0645
      8 C           8.0622   -0.2500    0.0000 C.3     1  UNL1       -0.0645
      9 H           2.4675   -0.7249    0.0000 H       1  UNL1        0.0271
     10 H           3.2646   -0.7249    0.0000 H       1  UNL1        0.0271
     11 H           7.5947    0.7249    0.0000 H       1  UNL1        0.0271
     12 H           6.7976    0.7249    0.0000 H       1  UNL1        0.0271
     13 H           5.9316   -0.7249    0.0000 H       1  UNL1        0.0384
     14 H           6.7287   -0.7249    0.0000 H       1  UNL1        0.0384
     15 H           4.1306    0.7249    0.0000 H       1  UNL1        0.0384
     16 H           3.3335    0.7249    0.0000 H       1  UNL1        0.0384
     17 H           2.3100    0.7869    0.0000 H       1  UNL1        0.0230
     18 H           1.4631    0.5600    0.0000 H       1  UNL1        0.0230
     19 H           1.6900   -0.2869    0.0000 H       1  UNL1        0.0230
     20 H           7.7522   -0.7869    0.0000 H       1  UNL1        0.0230
     21 H           8.5991   -0.5600    0.0000 H       1  UNL1        0.0230
     22 H           8.3722    0.2869    0.0000 H       1  UNL1        0.0230
@<TRIPOS>BOND
     1     1     2    1
     2     1     5    1
     3     2     6    1
     4     3     5    1
     5     3     7    1
     6     3     9    1
     7     3    10    1
     8     4     6    1
     9     4     8    1
    10     4    11    1
    11     4    12    1
    12     5    15    1
    13     5    16    1
    14     6    13    1
    15     6    14    1
    16     7    17    1
    17     7    18    1
    18     7    19    1
    19     8    20    1
    20     8    21    1
    21     8    22    1
