@<TRIPOS>MOLECULE
IMPHY011327
 110 112 0 0 0
SMALL
GASTEIGER

@<TRIPOS>ATOM
      1 O          12.2311    0.2400    0.0000 O.3     1  UNL1       -0.3683
      2 O          18.1886    1.8268    0.0000 O.3     1  UNL1       -0.3708
      3 O          14.1991   -0.4594    0.0000 O.3     1  UNL1       -0.3892
      4 O          16.2206    2.5261    0.0000 O.3     1  UNL1       -0.3892
      5 O          10.2631   -0.4594    0.0000 O.3     1  UNL1       -0.3892
      6 O          28.9467   -1.2197    0.0000 O.3     1  UNL1       -0.4542
      7 O          28.8535    0.5599    0.0000 O.2     1  UNL1       -0.2453
      8 C          13.0401    0.8278    0.0000 C.3     1  UNL1        0.0850
      9 C          17.3796    1.2390    0.0000 C.3     1  UNL1        0.0849
     10 C          11.4221    0.8278    0.0000 C.3     1  UNL1        0.0850
     11 C          12.7311    1.7788    0.0000 C.3     1  UNL1       -0.0217
     12 C          13.9912    0.5187    0.0000 C.3     1  UNL1        0.0814
     13 C          11.7311    1.7788    0.0000 C.3     1  UNL1       -0.0217
     14 C          16.4285    1.5480    0.0000 C.3     1  UNL1        0.0814
     15 C          18.9976    1.2390    0.0000 C.3     1  UNL1        0.0592
     16 C          17.6886    0.2879    0.0000 C.3     1  UNL1       -0.0218
     17 C          18.6886    0.2879    0.0000 C.3     1  UNL1       -0.0242
     18 C          14.7343    1.1879    0.0000 C.3     1  UNL1       -0.0220
     19 C          15.6854    0.8789    0.0000 C.3     1  UNL1       -0.0220
     20 C          10.4710    0.5187    0.0000 C.3     1  UNL1        0.0813
     21 C          19.9486    1.5480    0.0000 C.3     1  UNL1       -0.0266
     22 C           9.7279    1.1879    0.0000 C.3     1  UNL1       -0.0244
     23 C          20.6918    0.8789    0.0000 C.3     1  UNL1       -0.0507
     24 C           8.7768    0.8789    0.0000 C.3     1  UNL1       -0.0506
     25 C          21.6428    1.1879    0.0000 C.3     1  UNL1       -0.0530
     26 C           8.0337    1.5480    0.0000 C.3     1  UNL1       -0.0530
     27 C          22.3860    0.5187    0.0000 C.3     1  UNL1       -0.0531
     28 C           7.0826    1.2390    0.0000 C.3     1  UNL1       -0.0531
     29 C          23.3370    0.8278    0.0000 C.3     1  UNL1       -0.0531
     30 C           6.3395    1.9081    0.0000 C.3     1  UNL1       -0.0531
     31 C          24.0802    0.1586    0.0000 C.3     1  UNL1       -0.0530
     32 C           5.3884    1.5991    0.0000 C.3     1  UNL1       -0.0531
     33 C          25.0312    0.4676    0.0000 C.3     1  UNL1       -0.0528
     34 C           4.6453    2.2682    0.0000 C.3     1  UNL1       -0.0531
     35 C          25.7744   -0.2015    0.0000 C.3     1  UNL1       -0.0488
     36 C           3.6942    1.9592    0.0000 C.3     1  UNL1       -0.0533
     37 C          26.7255    0.1075    0.0000 C.3     1  UNL1       -0.0211
     38 C           2.9511    2.6283    0.0000 C.3     1  UNL1       -0.0559
     39 C          27.4686   -0.5616    0.0000 C.2     1  UNL1        0.0361
     40 C          27.3641   -1.5561    0.0000 C.2     1  UNL1       -0.0343
     41 C           2.0000    2.3193    0.0000 C.3     1  UNL1       -0.0653
     42 C          28.2776   -1.9628    0.0000 C.3     1  UNL1        0.1195
     43 C          28.4467   -0.3537    0.0000 C.2     1  UNL1        0.3355
     44 C          28.4855   -2.9410    0.0000 C.3     1  UNL1       -0.0240
     45 H          13.1731   -0.0118    0.0000 H       1  UNL1        0.0622
     46 H          17.2466    2.0785    0.0000 H       1  UNL1        0.0622
     47 H          11.2891   -0.0118    0.0000 H       1  UNL1        0.0622
     48 H          13.3375    1.9077    0.0000 H       1  UNL1        0.0292
     49 H          12.6663    2.3954    0.0000 H       1  UNL1        0.0292
     50 H          14.5808    0.3272    0.0000 H       1  UNL1        0.0619
     51 H          11.7959    2.3954    0.0000 H       1  UNL1        0.0292
     52 H          11.1246    1.9077    0.0000 H       1  UNL1        0.0292
     53 H          15.8388    1.7396    0.0000 H       1  UNL1        0.0619
     54 H          19.0946    1.8513    0.0000 H       1  UNL1        0.0596
     55 H          17.0821    0.1590    0.0000 H       1  UNL1        0.0292
     56 H          17.7534   -0.3287    0.0000 H       1  UNL1        0.0292
     57 H          18.6238   -0.3287    0.0000 H       1  UNL1        0.0291
     58 H          19.2950    0.1590    0.0000 H       1  UNL1        0.0291
     59 H          15.0254    1.7353    0.0000 H       1  UNL1        0.0292
     60 H          14.2457    1.5696    0.0000 H       1  UNL1        0.0292
     61 H          15.3943    0.3314    0.0000 H       1  UNL1        0.0292
     62 H          16.1739    0.4972    0.0000 H       1  UNL1        0.0292
     63 H           9.8814    0.3272    0.0000 H       1  UNL1        0.0619
     64 H          20.4372    1.9297    0.0000 H       1  UNL1        0.0290
     65 H          19.6576    2.0954    0.0000 H       1  UNL1        0.0290
     66 H          10.2164    1.5696    0.0000 H       1  UNL1        0.0291
     67 H           9.4368    1.7353    0.0000 H       1  UNL1        0.0291
     68 H          20.2032    0.4972    0.0000 H       1  UNL1        0.0266
     69 H          20.9829    0.3314    0.0000 H       1  UNL1        0.0266
     70 H           8.2882    0.4972    0.0000 H       1  UNL1        0.0266
     71 H           9.0679    0.3314    0.0000 H       1  UNL1        0.0266
     72 H          14.7887   -0.6510    0.0000 H       1  UNL1        0.2099
     73 H          22.1314    1.5696    0.0000 H       1  UNL1        0.0265
     74 H          21.3518    1.7353    0.0000 H       1  UNL1        0.0265
     75 H          16.6813    2.9410    0.0000 H       1  UNL1        0.2099
     76 H           8.5222    1.9297    0.0000 H       1  UNL1        0.0265
     77 H           7.7426    2.0954    0.0000 H       1  UNL1        0.0265
     78 H           9.6734   -0.6510    0.0000 H       1  UNL1        0.2099
     79 H          21.8974    0.1370    0.0000 H       1  UNL1        0.0265
     80 H          22.6771   -0.0287    0.0000 H       1  UNL1        0.0265
     81 H           6.5940    0.8573    0.0000 H       1  UNL1        0.0265
     82 H           7.3737    0.6915    0.0000 H       1  UNL1        0.0265
     83 H          23.8256    1.2095    0.0000 H       1  UNL1        0.0265
     84 H          23.0460    1.3752    0.0000 H       1  UNL1        0.0265
     85 H           6.8280    2.2898    0.0000 H       1  UNL1        0.0265
     86 H           6.0484    2.4555    0.0000 H       1  UNL1        0.0265
     87 H          23.5916   -0.2231    0.0000 H       1  UNL1        0.0265
     88 H          24.3713   -0.3888    0.0000 H       1  UNL1        0.0265
     89 H           4.8998    1.2174    0.0000 H       1  UNL1        0.0265
     90 H           5.6795    1.0517    0.0000 H       1  UNL1        0.0265
     91 H          25.5198    0.8494    0.0000 H       1  UNL1        0.0265
     92 H          24.7402    1.0151    0.0000 H       1  UNL1        0.0265
     93 H           5.1338    2.6499    0.0000 H       1  UNL1        0.0265
     94 H           4.3542    2.8157    0.0000 H       1  UNL1        0.0265
     95 H          25.2858   -0.5832    0.0000 H       1  UNL1        0.0268
     96 H          26.0655   -0.7489    0.0000 H       1  UNL1        0.0268
     97 H           3.2056    1.5775    0.0000 H       1  UNL1        0.0265
     98 H           3.9853    1.4118    0.0000 H       1  UNL1        0.0265
     99 H          27.2140    0.4892    0.0000 H       1  UNL1        0.0315
    100 H          26.4344    0.6550    0.0000 H       1  UNL1        0.0315
    101 H           3.4396    3.0100    0.0000 H       1  UNL1        0.0263
    102 H           2.6600    3.1758    0.0000 H       1  UNL1        0.0263
    103 H          26.8271   -1.8661    0.0000 H       1  UNL1        0.0613
    104 H           1.8084    2.9090    0.0000 H       1  UNL1        0.0230
    105 H           1.4103    2.1277    0.0000 H       1  UNL1        0.0230
    106 H           2.1916    1.7297    0.0000 H       1  UNL1        0.0230
    107 H          28.8765   -2.1233    0.0000 H       1  UNL1        0.0777
    108 H          27.8791   -3.0699    0.0000 H       1  UNL1        0.0268
    109 H          28.6144   -3.5474    0.0000 H       1  UNL1        0.0268
    110 H          29.0920   -2.8121    0.0000 H       1  UNL1        0.0268
@<TRIPOS>BOND
     1     1     8    1
     2     1    10    1
     3     2     9    1
     4     2    15    1
     5    12     3    1
     6     3    72    1
     7    14     4    1
     8     4    75    1
     9    20     5    1
    10     5    78    1
    11     6    42    1
    12     6    43    1
    13     7    43    2
    14     8    11    1
    15     8    12    1
    16     8    45    1
    17     9    14    1
    18     9    16    1
    19     9    46    1
    20    10    13    1
    21    10    20    1
    22    10    47    1
    23    11    13    1
    24    11    48    1
    25    11    49    1
    26    12    18    1
    27    12    50    1
    28    13    51    1
    29    13    52    1
    30    14    19    1
    31    14    53    1
    32    15    17    1
    33    15    21    1
    34    15    54    1
    35    16    17    1
    36    16    55    1
    37    16    56    1
    38    17    57    1
    39    17    58    1
    40    18    19    1
    41    18    59    1
    42    18    60    1
    43    19    61    1
    44    19    62    1
    45    20    22    1
    46    20    63    1
    47    21    23    1
    48    21    64    1
    49    21    65    1
    50    22    24    1
    51    22    66    1
    52    22    67    1
    53    23    25    1
    54    23    68    1
    55    23    69    1
    56    24    26    1
    57    24    70    1
    58    24    71    1
    59    25    27    1
    60    25    73    1
    61    25    74    1
    62    26    28    1
    63    26    76    1
    64    26    77    1
    65    27    29    1
    66    27    79    1
    67    27    80    1
    68    28    30    1
    69    28    81    1
    70    28    82    1
    71    29    31    1
    72    29    83    1
    73    29    84    1
    74    30    32    1
    75    30    85    1
    76    30    86    1
    77    31    33    1
    78    31    87    1
    79    31    88    1
    80    32    34    1
    81    32    89    1
    82    32    90    1
    83    33    35    1
    84    33    91    1
    85    33    92    1
    86    34    36    1
    87    34    93    1
    88    34    94    1
    89    35    37    1
    90    35    95    1
    91    35    96    1
    92    36    38    1
    93    36    97    1
    94    36    98    1
    95    37    39    1
    96    37    99    1
    97    37   100    1
    98    38    41    1
    99    38   101    1
   100    38   102    1
   101    39    40    2
   102    39    43    1
   103    40    42    1
   104    40   103    1
   105    41   104    1
   106    41   105    1
   107    41   106    1
   108    42    44    1
   109    42   107    1
   110    44   108    1
   111    44   109    1
   112    44   110    1
