@<TRIPOS>MOLECULE
IMPHY014033
 26 28 0 0 0
SMALL
GASTEIGER

@<TRIPOS>ATOM
      1 O           8.0321    0.2078    0.0000 O.3     1  UNL1       -0.5064
      2 N           4.5274    1.1203    0.0000 N.ar    1  UNL1       -0.3540
      3 C           5.0274   -0.4185    0.0000 C.ar    1  UNL1        0.0079
      4 C           4.0274   -0.4185    0.0000 C.ar    1  UNL1        0.0074
      5 C           5.3364    0.5325    0.0000 C.ar    1  UNL1        0.0510
      6 C           3.7183    0.5325    0.0000 C.ar    1  UNL1        0.0475
      7 C           5.7123   -1.2033    0.0000 C.ar    1  UNL1       -0.0456
      8 C           6.7328   -0.9946    0.0000 C.ar    1  UNL1       -0.0083
      9 C           6.3518    0.7648    0.0000 C.ar    1  UNL1        0.0040
     10 C           7.0547   -0.0039    0.0000 C.ar    1  UNL1        0.1217
     11 C           3.3424   -1.2033    0.0000 C.ar    1  UNL1       -0.0520
     12 C           2.7029    0.7648    0.0000 C.ar    1  UNL1       -0.0378
     13 C           2.3219   -0.9946    0.0000 C.ar    1  UNL1       -0.0611
     14 C           2.0000   -0.0039    0.0000 C.ar    1  UNL1       -0.0598
     15 C           7.3991   -1.7403    0.0000 C.3     1  UNL1       -0.0362
     16 H           4.5274    1.7403    0.0000 H       1  UNL1        0.1659
     17 H           5.5139   -1.7907    0.0000 H       1  UNL1        0.0628
     18 H           6.5365    1.3566    0.0000 H       1  UNL1        0.0675
     19 H           3.5408   -1.7907    0.0000 H       1  UNL1        0.0624
     20 H           2.5182    1.3566    0.0000 H       1  UNL1        0.0638
     21 H           1.9088   -1.4569    0.0000 H       1  UNL1        0.0618
     22 H           1.3940    0.1273    0.0000 H       1  UNL1        0.0618
     23 H           6.9368   -2.1534    0.0000 H       1  UNL1        0.0279
     24 H           7.8122   -2.2026    0.0000 H       1  UNL1        0.0279
     25 H           7.8614   -1.3272    0.0000 H       1  UNL1        0.0279
     26 H           8.2214    0.7981    0.0000 H       1  UNL1        0.2921
@<TRIPOS>BOND
     1     1    10    1
     2     1    26    1
     3     2     5   ar
     4     2     6   ar
     5     2    16    1
     6     3     4   ar
     7     3     5   ar
     8     3     7   ar
     9     4     6   ar
    10     4    11   ar
    11     5     9   ar
    12     6    12   ar
    13     7     8   ar
    14     7    17    1
    15     8    10   ar
    16     8    15    1
    17     9    10   ar
    18     9    18    1
    19    11    13   ar
    20    11    19    1
    21    12    14   ar
    22    12    20    1
    23    13    14   ar
    24    13    21    1
    25    14    22    1
    26    15    23    1
    27    15    24    1
    28    15    25    1
