@<TRIPOS>MOLECULE
IMPHY017884
 39 40 0 0 0
SMALL
GASTEIGER

@<TRIPOS>ATOM
      1 C           3.7320    0.7500    0.0000 C.3     1  UNL1       -0.0133
      2 C           2.8660    1.2500    0.0000 C.3     1  UNL1       -0.0368
      3 C           4.6260    1.2847    0.0000 C.3     1  UNL1       -0.0454
      4 C           3.7320   -0.2500    0.0000 C.2     1  UNL1       -0.0446
      5 C           2.0000    0.7500    0.0000 C.3     1  UNL1       -0.0459
      6 C           5.5321    0.7708    0.0000 C.3     1  UNL1       -0.0464
      7 C           5.5321   -0.2708    0.0000 C.3     1  UNL1       -0.0252
      8 C           2.0000   -0.2500    0.0000 C.3     1  UNL1       -0.0272
      9 C           2.8660   -0.7500    0.0000 C.2     1  UNL1       -0.0455
     10 C           4.6260   -0.7847    0.0000 C.2     1  UNL1       -0.0775
     11 C           2.8660    2.2500    0.0000 C.3     1  UNL1       -0.0619
     12 C           2.8660   -1.7500    0.0000 C.2     1  UNL1       -0.0723
     13 C           6.3961   -0.7742    0.0000 C.3     1  UNL1       -0.0589
     14 C           2.0000   -2.2500    0.0000 C.3     1  UNL1       -0.0435
     15 C           3.7320   -2.2500    0.0000 C.3     1  UNL1       -0.0435
     16 H           4.2714    0.4441    0.0000 H       1  UNL1        0.0351
     17 H           3.4030    1.5600    0.0000 H       1  UNL1        0.0304
     18 H           5.0196    1.7637    0.0000 H       1  UNL1        0.0271
     19 H           4.2214    1.7544    0.0000 H       1  UNL1        0.0271
     20 H           1.7880    1.3326    0.0000 H       1  UNL1        0.0271
     21 H           1.3894    0.6423    0.0000 H       1  UNL1        0.0271
     22 H           6.1429    0.6647    0.0000 H       1  UNL1        0.0271
     23 H           5.7411    1.3545    0.0000 H       1  UNL1        0.0271
     24 H           5.5285   -0.8908    0.0000 H       1  UNL1        0.0340
     25 H           1.3894   -0.1423    0.0000 H       1  UNL1        0.0313
     26 H           1.7880   -0.8326    0.0000 H       1  UNL1        0.0313
     27 H           4.6188   -1.4046    0.0000 H       1  UNL1        0.0578
     28 H           3.4860    2.2500    0.0000 H       1  UNL1        0.0233
     29 H           2.8660    2.8700    0.0000 H       1  UNL1        0.0233
     30 H           2.2460    2.2500    0.0000 H       1  UNL1        0.0233
     31 H           6.0841   -1.3099    0.0000 H       1  UNL1        0.0235
     32 H           6.9319   -1.0862    0.0000 H       1  UNL1        0.0235
     33 H           6.7082   -0.2384    0.0000 H       1  UNL1        0.0235
     34 H           1.6900   -1.7131    0.0000 H       1  UNL1        0.0274
     35 H           1.4631   -2.5600    0.0000 H       1  UNL1        0.0274
     36 H           2.3100   -2.7869    0.0000 H       1  UNL1        0.0274
     37 H           3.4220   -2.7869    0.0000 H       1  UNL1        0.0274
     38 H           4.2690   -2.5600    0.0000 H       1  UNL1        0.0274
     39 H           4.0420   -1.7131    0.0000 H       1  UNL1        0.0274
@<TRIPOS>BOND
     1     1     2    1
     2     1     3    1
     3     1     4    1
     4     1    16    1
     5     2     5    1
     6     2    11    1
     7     2    17    1
     8     3     6    1
     9     3    18    1
    10     3    19    1
    11     4     9    1
    12     4    10    2
    13     5     8    1
    14     5    20    1
    15     5    21    1
    16     6     7    1
    17     6    22    1
    18     6    23    1
    19     7    10    1
    20     7    13    1
    21     7    24    1
    22     8     9    1
    23     8    25    1
    24     8    26    1
    25     9    12    2
    26    10    27    1
    27    11    28    1
    28    11    29    1
    29    11    30    1
    30    12    14    1
    31    12    15    1
    32    13    31    1
    33    13    32    1
    34    13    33    1
    35    14    34    1
    36    14    35    1
    37    14    36    1
    38    15    37    1
    39    15    38    1
    40    15    39    1
