@<TRIPOS>MOLECULE
IMPHY015296
 33 34 0 0 0
SMALL
GASTEIGER

@<TRIPOS>ATOM
      1 O           5.1350   -0.5000    0.0000 O.3     1  UNL1       -0.4608
      2 O           3.4030   -0.5000    0.0000 O.2     1  UNL1       -0.2449
      3 N           2.5369   -2.0000    0.0000 N.pl3   1  UNL1       -0.3573
      4 C           6.0010    1.0000    0.0000 C.3     1  UNL1        0.0068
      5 C           6.0010    2.0000    0.0000 C.ar    1  UNL1       -0.0442
      6 C           5.1350    0.5000    0.0000 C.3     1  UNL1        0.0967
      7 C           6.8671    2.5000    0.0000 C.ar    1  UNL1       -0.0585
      8 C           5.1350    2.5000    0.0000 C.ar    1  UNL1       -0.0585
      9 C           4.2690   -2.0000    0.0000 C.ar    1  UNL1        0.0795
     10 C           3.4030   -2.5000    0.0000 C.ar    1  UNL1        0.0387
     11 C           4.2690   -1.0000    0.0000 C.2     1  UNL1        0.3410
     12 C           6.8671    3.5000    0.0000 C.ar    1  UNL1       -0.0615
     13 C           5.1350    3.5000    0.0000 C.ar    1  UNL1       -0.0615
     14 C           5.1350   -2.5000    0.0000 C.ar    1  UNL1       -0.0460
     15 C           6.0010    4.0000    0.0000 C.ar    1  UNL1       -0.0617
     16 C           3.4030   -3.5000    0.0000 C.ar    1  UNL1       -0.0402
     17 C           5.1350   -3.5000    0.0000 C.ar    1  UNL1       -0.0609
     18 C           4.2690   -4.0000    0.0000 C.ar    1  UNL1       -0.0600
     19 H           6.2131    0.4174    0.0000 H       1  UNL1        0.0346
     20 H           6.6116    1.1077    0.0000 H       1  UNL1        0.0346
     21 H           4.9230    1.0826    0.0000 H       1  UNL1        0.0701
     22 H           4.5244    0.3923    0.0000 H       1  UNL1        0.0701
     23 H           7.4040    2.1900    0.0000 H       1  UNL1        0.0620
     24 H           4.5981    2.1900    0.0000 H       1  UNL1        0.0620
     25 H           7.4040    3.8100    0.0000 H       1  UNL1        0.0618
     26 H           4.5981    3.8100    0.0000 H       1  UNL1        0.0618
     27 H           5.6720   -2.1900    0.0000 H       1  UNL1        0.0626
     28 H           6.0010    4.6200    0.0000 H       1  UNL1        0.0618
     29 H           2.8660   -3.8100    0.0000 H       1  UNL1        0.0636
     30 H           5.6720   -3.8100    0.0000 H       1  UNL1        0.0618
     31 H           4.2690   -4.6200    0.0000 H       1  UNL1        0.0618
     32 H           2.0000   -2.3100    0.0000 H       1  UNL1        0.1423
     33 H           2.5369   -1.3800    0.0000 H       1  UNL1        0.1423
@<TRIPOS>BOND
     1     1     6    1
     2     1    11    1
     3     2    11    2
     4     3    10    1
     5     3    32    1
     6     3    33    1
     7     4     5    1
     8     4     6    1
     9     4    19    1
    10     4    20    1
    11     5     7   ar
    12     5     8   ar
    13     6    21    1
    14     6    22    1
    15     7    12   ar
    16     7    23    1
    17     8    13   ar
    18     8    24    1
    19     9    10   ar
    20     9    11    1
    21     9    14   ar
    22    10    16   ar
    23    12    15   ar
    24    12    25    1
    25    13    15   ar
    26    13    26    1
    27    14    17   ar
    28    14    27    1
    29    15    28    1
    30    16    18   ar
    31    16    29    1
    32    17    18   ar
    33    17    30    1
    34    18    31    1
