@<TRIPOS>MOLECULE
IMPHY017263
 37 37 0 0 0
SMALL
GASTEIGER

@<TRIPOS>ATOM
      1 O           2.5369   -1.0000    0.0000 O.3     1  UNL1       -0.5065
      2 C           4.2690    0.0000    0.0000 C.3     1  UNL1       -0.0124
      3 C           5.1350    0.5000    0.0000 C.3     1  UNL1       -0.0461
      4 C           3.4030    0.5000    0.0000 C.3     1  UNL1       -0.0463
      5 C           5.1350    1.5000    0.0000 C.3     1  UNL1       -0.0528
      6 C           4.2690   -1.0000    0.0000 C.ar    1  UNL1       -0.0029
      7 C           3.4030    1.5000    0.0000 C.3     1  UNL1       -0.0554
      8 C           6.0010    2.0000    0.0000 C.3     1  UNL1       -0.0559
      9 C           3.4030   -1.5000    0.0000 C.ar    1  UNL1        0.1203
     10 C           5.1350   -1.5000    0.0000 C.ar    1  UNL1       -0.0548
     11 C           2.5369    2.0000    0.0000 C.3     1  UNL1       -0.0653
     12 C           6.0010    3.0000    0.0000 C.3     1  UNL1       -0.0653
     13 C           3.4030   -2.5000    0.0000 C.ar    1  UNL1       -0.0199
     14 C           5.1350   -2.5000    0.0000 C.ar    1  UNL1       -0.0613
     15 C           4.2690   -3.0000    0.0000 C.ar    1  UNL1       -0.0583
     16 H           4.2690    0.6200    0.0000 H       1  UNL1        0.0350
     17 H           5.3471   -0.0826    0.0000 H       1  UNL1        0.0271
     18 H           5.7456    0.6077    0.0000 H       1  UNL1        0.0271
     19 H           2.7924    0.6077    0.0000 H       1  UNL1        0.0271
     20 H           3.1909   -0.0826    0.0000 H       1  UNL1        0.0271
     21 H           4.9230    2.0826    0.0000 H       1  UNL1        0.0265
     22 H           4.5244    1.3923    0.0000 H       1  UNL1        0.0265
     23 H           4.0135    1.3923    0.0000 H       1  UNL1        0.0263
     24 H           3.6150    2.0826    0.0000 H       1  UNL1        0.0263
     25 H           6.2131    1.4174    0.0000 H       1  UNL1        0.0263
     26 H           6.6116    2.1077    0.0000 H       1  UNL1        0.0263
     27 H           5.6720   -1.1900    0.0000 H       1  UNL1        0.0622
     28 H           2.8469    2.5369    0.0000 H       1  UNL1        0.0230
     29 H           2.0000    2.3100    0.0000 H       1  UNL1        0.0230
     30 H           2.2269    1.4631    0.0000 H       1  UNL1        0.0230
     31 H           6.6210    3.0000    0.0000 H       1  UNL1        0.0230
     32 H           6.0010    3.6200    0.0000 H       1  UNL1        0.0230
     33 H           5.3810    3.0000    0.0000 H       1  UNL1        0.0230
     34 H           2.8660   -2.8100    0.0000 H       1  UNL1        0.0654
     35 H           5.6720   -2.8100    0.0000 H       1  UNL1        0.0618
     36 H           4.2690   -3.6200    0.0000 H       1  UNL1        0.0619
     37 H           2.0000   -1.3100    0.0000 H       1  UNL1        0.2921
@<TRIPOS>BOND
     1     1     9    1
     2     1    37    1
     3     2     3    1
     4     2     4    1
     5     2     6    1
     6     2    16    1
     7     3     5    1
     8     3    17    1
     9     3    18    1
    10     4     7    1
    11     4    19    1
    12     4    20    1
    13     5     8    1
    14     5    21    1
    15     5    22    1
    16     6     9   ar
    17     6    10   ar
    18     7    11    1
    19     7    23    1
    20     7    24    1
    21     8    12    1
    22     8    25    1
    23     8    26    1
    24     9    13   ar
    25    10    14   ar
    26    10    27    1
    27    11    28    1
    28    11    29    1
    29    11    30    1
    30    12    31    1
    31    12    32    1
    32    12    33    1
    33    13    15   ar
    34    13    34    1
    35    14    15   ar
    36    14    35    1
    37    15    36    1
