@<TRIPOS>MOLECULE
IMPHY012601
 57 57 0 0 0
SMALL
GASTEIGER

@<TRIPOS>ATOM
      1 O           4.8006    0.5861    0.0000 O.3     1  UNL1       -0.3768
      2 O           5.6096    1.1739    0.0000 O.3     1  UNL1       -0.3712
      3 O           5.1096   -1.9830    0.0000 O.2     1  UNL1       -0.5072
      4 O           7.9575    0.0861    0.0000 O.2     1  UNL1       -0.2881
      5 O           7.7797    1.0694    0.0000 O.2     1  UNL1       -0.2934
      6 O           8.2797   -1.8784    0.0000 O.2     1  UNL1       -0.2918
      7 C           5.3884   -0.2229    0.0000 C.3     1  UNL1        0.1691
      8 C           6.1974    0.3649    0.0000 C.3     1  UNL1        0.2225
      9 C           5.6974   -1.1739    0.0000 C.2     1  UNL1        0.1434
     10 C           4.4374   -0.5319    0.0000 C.3     1  UNL1        0.0052
     11 C           7.0064   -0.2229    0.0000 C.2     1  UNL1        0.2118
     12 C           6.6974   -1.1739    0.0000 C.2     1  UNL1        0.1033
     13 C           6.7852    1.1739    0.0000 C.2     1  UNL1        0.1794
     14 C           7.2852   -1.9830    0.0000 C.2     1  UNL1        0.1702
     15 C           3.6942    0.1372    0.0000 C.2     1  UNL1       -0.0820
     16 C           6.3785    2.0875    0.0000 C.3     1  UNL1        0.0277
     17 C           6.8785   -2.8965    0.0000 C.3     1  UNL1        0.0130
     18 C           7.4662   -3.7055    0.0000 C.3     1  UNL1       -0.0397
     19 C           2.7431   -0.1718    0.0000 C.2     1  UNL1       -0.0795
     20 C           6.9662    2.8965    0.0000 C.2     1  UNL1       -0.0781
     21 C           7.0595   -4.6190    0.0000 C.3     1  UNL1       -0.0623
     22 C           8.4608   -3.6010    0.0000 C.3     1  UNL1       -0.0623
     23 C           2.0000    0.4974    0.0000 C.3     1  UNL1       -0.0440
     24 C           2.5352   -1.1499    0.0000 C.3     1  UNL1       -0.0440
     25 C           6.5595    3.8100    0.0000 C.2     1  UNL1       -0.0792
     26 C           7.1473    4.6190    0.0000 C.3     1  UNL1       -0.0440
     27 C           5.5650    3.9146    0.0000 C.3     1  UNL1       -0.0440
     28 H           3.9488   -0.9136    0.0000 H       1  UNL1        0.0341
     29 H           4.7284   -1.0793    0.0000 H       1  UNL1        0.0341
     30 H           4.1840    0.5213    0.0000 H       1  UNL1        0.2109
     31 H           5.8618    1.7403    0.0000 H       1  UNL1        0.2114
     32 H           3.8231    0.7437    0.0000 H       1  UNL1        0.0572
     33 H           5.9478    2.5335    0.0000 H       1  UNL1        0.0385
     34 H           5.8645    1.7408    0.0000 H       1  UNL1        0.0385
     35 H           6.3645   -2.5498    0.0000 H       1  UNL1        0.0348
     36 H           6.4478   -3.3425    0.0000 H       1  UNL1        0.0348
     37 H           7.8307   -4.2071    0.0000 H       1  UNL1        0.0300
     38 H           5.3618   -2.5493    0.0000 H       1  UNL1        0.2918
     39 H           7.5829    2.8317    0.0000 H       1  UNL1        0.0576
     40 H           6.4931   -4.3669    0.0000 H       1  UNL1        0.0232
     41 H           6.8073   -5.1854    0.0000 H       1  UNL1        0.0232
     42 H           7.6259   -4.8712    0.0000 H       1  UNL1        0.0232
     43 H           8.5256   -4.2176    0.0000 H       1  UNL1        0.0232
     44 H           9.0774   -3.5362    0.0000 H       1  UNL1        0.0232
     45 H           8.3960   -2.9844    0.0000 H       1  UNL1        0.0232
     46 H           2.4149    0.9581    0.0000 H       1  UNL1        0.0274
     47 H           1.5392    0.9122    0.0000 H       1  UNL1        0.0274
     48 H           1.5851    0.0366    0.0000 H       1  UNL1        0.0274
     49 H           1.9288   -1.0210    0.0000 H       1  UNL1        0.0274
     50 H           2.4063   -1.7564    0.0000 H       1  UNL1        0.0274
     51 H           3.1417   -1.2788    0.0000 H       1  UNL1        0.0274
     52 H           7.6489    4.2546    0.0000 H       1  UNL1        0.0274
     53 H           7.5117    5.1207    0.0000 H       1  UNL1        0.0274
     54 H           6.6457    4.9835    0.0000 H       1  UNL1        0.0274
     55 H           5.6298    4.5312    0.0000 H       1  UNL1        0.0274
     56 H           4.9484    3.9794    0.0000 H       1  UNL1        0.0274
     57 H           5.5002    3.2980    0.0000 H       1  UNL1        0.0274
@<TRIPOS>BOND
     1     1     7    1
     2     1    30    1
     3     2     8    1
     4     2    31    1
     5     3     9    1
     6     3    38    1
     7     4    11    2
     8     5    13    2
     9     6    14    2
    10     7     8    1
    11     7     9    1
    12     7    10    1
    13     8    11    1
    14     8    13    1
    15     9    12    2
    16    10    15    1
    17    10    28    1
    18    10    29    1
    19    11    12    1
    20    12    14    1
    21    13    16    1
    22    14    17    1
    23    15    19    2
    24    15    32    1
    25    16    20    1
    26    16    33    1
    27    16    34    1
    28    17    18    1
    29    17    35    1
    30    17    36    1
    31    18    21    1
    32    18    22    1
    33    18    37    1
    34    19    23    1
    35    19    24    1
    36    20    25    2
    37    20    39    1
    38    21    40    1
    39    21    41    1
    40    21    42    1
    41    22    43    1
    42    22    44    1
    43    22    45    1
    44    23    46    1
    45    23    47    1
    46    23    48    1
    47    24    49    1
    48    24    50    1
    49    24    51    1
    50    25    26    1
    51    25    27    1
    52    26    52    1
    53    26    53    1
    54    26    54    1
    55    27    55    1
    56    27    56    1
    57    27    57    1
