@<TRIPOS>MOLECULE
IMPHY000499
 38 41 0 0 0
SMALL
GASTEIGER

@<TRIPOS>ATOM
      1 C           4.8831    3.3686    0.0000 C.ar    1  UNL1        0.1411
      2 C           5.7691    2.9080    0.0000 C.ar    1  UNL1        0.0195
      3 O           3.8994    2.8690    0.0000 O.3     1  UNL1       -0.4507
      4 C           4.8558    4.4030    0.0000 C.ar    1  UNL1        0.0819
      5 C           6.6045    3.4427    0.0000 C.ar    1  UNL1        0.0400
      6 C           5.7691    1.9478    0.0000 C.3     1  UNL1        0.0558
      7 C           2.9900    2.9080    0.0000 C.3     1  UNL1        0.3218
      8 C           5.6833    4.8948    0.0000 C.ar    1  UNL1        0.2330
      9 C           6.5654    4.4381    0.0000 C.ar    1  UNL1        0.1870
     10 C           6.6942    1.4520    0.0000 C.ar    1  UNL1       -0.0177
     11 C           2.4591    2.0610    0.0000 C.3     1  UNL1        0.2542
     12 O           2.5216    3.7901    0.0000 O.3     1  UNL1       -0.3157
     13 O           5.6598    6.0112    0.0000 O.3     1  UNL1       -0.2832
     14 O           7.4788    4.9377    0.0000 O.3     1  UNL1       -0.4208
     15 C           6.7372    0.4567    0.0000 C.ar    1  UNL1       -0.0039
     16 C           7.5335    1.9868    0.0000 C.ar    1  UNL1       -0.0039
     17 C           1.4599    2.0961    0.0000 C.3     1  UNL1        0.2211
     18 O           2.9275    1.1749    0.0000 O.3     1  UNL1       -0.2135
     19 C           1.5223    3.8253    0.0000 C.3     1  UNL1        0.1846
     20 C           8.3727    4.3874    0.0000 C.2     1  UNL1        0.3219
     21 C           7.6193    0.0000    0.0000 C.ar    1  UNL1       -0.0003
     22 C           8.4195    1.5301    0.0000 C.ar    1  UNL1       -0.0003
     23 C           0.9914    2.9783    0.0000 C.3     1  UNL1        0.2145
     24 O           0.9290    1.2491    0.0000 O.3     1  UNL1       -0.2173
     25 C           1.0578    4.7074    0.0000 C.3     1  UNL1        0.2142
     26 C           9.2861    4.8987    0.0000 C.3     1  UNL1        0.1146
     27 O           8.3610    3.4076    0.0000 O.2     1  UNL1       -0.2497
     28 C           8.4625    0.5309    0.0000 C.ar    1  UNL1       -0.0000
     29 O           0.0000    3.0173    0.0000 O.3     1  UNL1       -0.2176
     30 O           0.0586    4.7465    0.0000 O.3     1  UNL1       -0.2176
     31 C          10.1760    4.3483    0.0000 C.3     1  UNL1        0.0380
     32 C          11.0855    4.8597    0.0000 C.ar    1  UNL1       -0.0214
     33 C          11.8935    4.3639    0.0000 C.ar    1  UNL1       -0.0010
     34 C          11.1089    5.8043    0.0000 C.ar    1  UNL1       -0.0010
     35 C          12.7210    4.8128    0.0000 C.ar    1  UNL1        0.0417
     36 C          11.9442    6.2571    0.0000 C.ar    1  UNL1        0.0417
     37 C          12.7483    5.7613    0.0000 C.ar    1  UNL1        0.1957
     38 O          13.6617    6.2414    0.0000 O.3     1  UNL1       -0.2866
@<TRIPOS>BOND
     1     1     2   ar
     2     1     3    1
     3     1     4   ar
     4     2     5   ar
     5     2     6    1
     6     4     8   ar
     7     5     9   ar
     8     6    10    1
     9     7     3    1
    10     7    11    1
    11     7    12    1
    12     8     9   ar
    13     8    13    1
    14     9    14    1
    15    10    15   ar
    16    10    16   ar
    17    11    17    1
    18    11    18    1
    19    12    19    1
    20    14    20    1
    21    15    21   ar
    22    16    22   ar
    23    17    23    1
    24    17    24    1
    25    19    23    1
    26    19    25    1
    27    20    26    1
    28    20    27    2
    29    21    28   ar
    30    22    28   ar
    31    23    29    1
    32    25    30    1
    33    26    31    1
    34    31    32    1
    35    32    33   ar
    36    32    34   ar
    37    33    35   ar
    38    34    36   ar
    39    35    37   ar
    40    36    37   ar
    41    37    38    1
