@<TRIPOS>MOLECULE
IMPHY006032
 27 26 0 0 0
SMALL
GASTEIGER

@<TRIPOS>ATOM
      1 O           2.5369    0.5000    0.0000 O.3     1  UNL1       -0.3947
      2 C           4.2690    0.5000    0.0000 C.3     1  UNL1       -0.0181
      3 C           5.1350    1.0000    0.0000 C.3     1  UNL1       -0.0481
      4 C           6.0010    0.5000    0.0000 C.3     1  UNL1       -0.0530
      5 C           4.2690   -0.5000    0.0000 C.3     1  UNL1       -0.0510
      6 C           3.4030    1.0000    0.0000 C.3     1  UNL1        0.0470
      7 C           6.8671    1.0000    0.0000 C.3     1  UNL1       -0.0559
      8 C           3.4030   -1.0000    0.0000 C.3     1  UNL1       -0.0650
      9 C           7.7331    0.5000    0.0000 C.3     1  UNL1       -0.0653
     10 H           4.2690    1.1200    0.0000 H       1  UNL1        0.0323
     11 H           5.5335    1.4750    0.0000 H       1  UNL1        0.0269
     12 H           4.7365    1.4750    0.0000 H       1  UNL1        0.0269
     13 H           5.6025    0.0251    0.0000 H       1  UNL1        0.0265
     14 H           6.3996    0.0251    0.0000 H       1  UNL1        0.0265
     15 H           4.4810   -1.0826    0.0000 H       1  UNL1        0.0266
     16 H           4.8796   -0.3923    0.0000 H       1  UNL1        0.0266
     17 H           3.8015    1.4750    0.0000 H       1  UNL1        0.0560
     18 H           3.0044    1.4750    0.0000 H       1  UNL1        0.0560
     19 H           7.2656    1.4750    0.0000 H       1  UNL1        0.0263
     20 H           6.4685    1.4750    0.0000 H       1  UNL1        0.0263
     21 H           3.0930   -0.4631    0.0000 H       1  UNL1        0.0230
     22 H           2.8660   -1.3100    0.0000 H       1  UNL1        0.0230
     23 H           3.7130   -1.5369    0.0000 H       1  UNL1        0.0230
     24 H           7.4231   -0.0369    0.0000 H       1  UNL1        0.0230
     25 H           8.2700    0.1900    0.0000 H       1  UNL1        0.0230
     26 H           8.0431    1.0369    0.0000 H       1  UNL1        0.0230
     27 H           2.0000    0.8100    0.0000 H       1  UNL1        0.2094
@<TRIPOS>BOND
     1     1     6    1
     2     1    27    1
     3     2     3    1
     4     2     5    1
     5     2     6    1
     6     2    10    1
     7     3     4    1
     8     3    11    1
     9     3    12    1
    10     4     7    1
    11     4    13    1
    12     4    14    1
    13     5     8    1
    14     5    15    1
    15     5    16    1
    16     6    17    1
    17     6    18    1
    18     7     9    1
    19     7    19    1
    20     7    20    1
    21     8    21    1
    22     8    22    1
    23     8    23    1
    24     9    24    1
    25     9    25    1
    26     9    26    1
