@<TRIPOS>MOLECULE
IMPHY013727
 42 42 0 0 0
SMALL
GASTEIGER

@<TRIPOS>ATOM
      1 S           2.8660    1.4400    0.0000 S.O     1  UNL1        0.0191
      2 O           4.5981   -2.5600    0.0000 O.3     1  UNL1       -0.4793
      3 OXT         5.4641   -4.0600    0.0000 O.2     1  UNL1       -0.2489
      4 O           4.5981    3.4400    0.0000 O.3     1  UNL1       -0.4791
      5 O           9.7942   -2.5600    0.0000 O.3     1  UNL1       -0.4763
      6 O           2.8660    0.4400    0.0000 O.2     1  UNL1       -0.2575
      7 OXT         6.3301    3.4400    0.0000 O.2     1  UNL1       -0.2486
      8 OXT         8.9282   -4.0600    0.0000 O.2     1  UNL1       -0.2437
      9 N           7.1962   -3.0600    0.0000 N.pl3   1  UNL1       -0.3256
     10 N           6.3301    1.4400    0.0000 N.2     1  UNL1       -0.2770
     11 CA          6.3301   -2.5600    0.0000 C.3     1  UNL1        0.1224
     12 C           6.3301   -1.5600    0.0000 C.3     1  UNL1        0.0013
     13 C           7.1962   -1.0600    0.0000 C.2     1  UNL1       -0.0417
     14 CA          8.0622   -2.5600    0.0000 C.2     1  UNL1        0.1130
     15 C           8.0622   -1.5600    0.0000 C.2     1  UNL1       -0.0306
     16 C           4.5981    1.4400    0.0000 C.3     1  UNL1       -0.0088
     17 CA          5.4641    1.9400    0.0000 C.3     1  UNL1        0.1478
     18 C           3.7320    1.9400    0.0000 C.3     1  UNL1        0.0256
     19 C           7.1962   -0.0600    0.0000 C.2     1  UNL1       -0.0407
     20 C           5.4641   -3.0600    0.0000 C.2     1  UNL1        0.3255
     21 C           6.3301    0.4400    0.0000 C.2     1  UNL1        0.0233
     22 C           8.9282   -3.0600    0.0000 C.2     1  UNL1        0.3508
     23 C           5.4641    2.9400    0.0000 C.2     1  UNL1        0.3295
     24 C           2.0000    1.9400    0.0000 C.3     1  UNL1        0.0117
     25 HA          6.3301   -3.1800    0.0000 H       1  UNL1        0.0617
     26 H           6.1181   -0.9774    0.0000 H       1  UNL1        0.0337
     27 H           5.7196   -1.6677    0.0000 H       1  UNL1        0.0337
     28 H           7.1962   -3.6800    0.0000 H       1  UNL1        0.1471
     29 H           4.1996    0.9651    0.0000 H       1  UNL1        0.0300
     30 H           4.9966    0.9651    0.0000 H       1  UNL1        0.0300
     31 H           8.5991   -1.2500    0.0000 H       1  UNL1        0.0641
     32 HA          5.4641    1.3200    0.0000 H       1  UNL1        0.0661
     33 H           4.1306    2.4150    0.0000 H       1  UNL1        0.0401
     34 H           3.3335    2.4150    0.0000 H       1  UNL1        0.0401
     35 H           7.7331    0.2500    0.0000 H       1  UNL1        0.0635
     36 H           5.7932    0.1300    0.0000 H       1  UNL1        0.0825
     37 H           2.3100    2.4769    0.0000 H       1  UNL1        0.0365
     38 H           1.4631    2.2500    0.0000 H       1  UNL1        0.0365
     39 H           1.6900    1.4031    0.0000 H       1  UNL1        0.0365
     40 H           4.0611   -2.8700    0.0000 H       1  UNL1        0.2951
     41 H           4.5981    4.0600    0.0000 H       1  UNL1        0.2951
     42 H          10.3312   -2.8700    0.0000 H       1  UNL1        0.2954
@<TRIPOS>BOND
     1     1     6    2
     2     1    18    1
     3     1    24    1
     4     2    20    1
     5     2    40    1
     6     3    20    2
     7     4    23    1
     8     4    41    1
     9     5    22    1
    10     5    42    1
    11     7    23    2
    12     8    22    2
    13     9    11    1
    14     9    14    1
    15     9    28    1
    16    10    17    1
    17    10    21    2
    18    11    12    1
    19    11    20    1
    20    11    25    1
    21    12    13    1
    22    12    26    1
    23    12    27    1
    24    13    15    1
    25    13    19    2
    26    14    15    2
    27    14    22    1
    28    15    31    1
    29    16    17    1
    30    16    18    1
    31    16    29    1
    32    16    30    1
    33    17    23    1
    34    17    32    1
    35    18    33    1
    36    18    34    1
    37    19    21    1
    38    19    35    1
    39    21    36    1
    40    24    37    1
    41    24    38    1
    42    24    39    1
