@<TRIPOS>MOLECULE
IMPHY014929
 169 176 0 0 0
SMALL
GASTEIGER

@<TRIPOS>ATOM
      1 O           7.3190    1.5069    0.0000 O.3     1  UNL1       -0.3915
      2 O           9.0218   -4.6833    0.0000 O.3     1  UNL1       -0.3449
      3 O           7.9151    3.9697    0.0000 O.3     1  UNL1       -0.3422
      4 O           7.2898   -4.6833    0.0000 O.3     1  UNL1       -0.3405
      5 O           7.5514    5.6631    0.0000 O.3     1  UNL1       -0.3405
      6 O           9.0218   -6.6833    0.0000 O.3     1  UNL1       -0.3378
      7 O           9.8705    4.3896    0.0000 O.3     1  UNL1       -0.3841
      8 O           7.2898   -7.6833    0.0000 O.3     1  UNL1       -0.3864
      9 O          10.4845    6.2931    0.0000 O.3     1  UNL1       -0.3864
     10 O           5.5577   -6.6833    0.0000 O.3     1  UNL1       -0.3865
     11 O           9.1431    7.7765    0.0000 O.3     1  UNL1       -0.3865
     12 O           6.2100    7.1465    0.0000 O.3     1  UNL1       -0.3460
     13 O           8.1558   -8.1833    0.0000 O.3     1  UNL1       -0.3405
     14 O           4.6917   -5.1833    0.0000 O.3     1  UNL1       -0.3924
     15 O          10.7539   -7.6833    0.0000 O.3     1  UNL1       -0.3841
     16 O          10.7539   -9.6833    0.0000 O.3     1  UNL1       -0.3864
     17 O           4.5616    7.6783    0.0000 O.3     1  UNL1       -0.3405
     18 O           9.0218  -10.6833    0.0000 O.3     1  UNL1       -0.3865
     19 O           7.2898  -10.6833    0.0000 O.3     1  UNL1       -0.3924
     20 O           6.8240    9.0500    0.0000 O.3     1  UNL1       -0.3841
     21 O           5.4826   10.5334    0.0000 O.3     1  UNL1       -0.3864
     22 O           3.5272   10.1134    0.0000 O.3     1  UNL1       -0.3865
     23 O           2.6062    7.2583    0.0000 O.3     1  UNL1       -0.3924
     24 C           9.9229    0.0170    0.0000 C.3     1  UNL1       -0.0229
     25 C           9.9190    1.0169    0.0000 C.3     1  UNL1       -0.0209
     26 C           9.0588   -0.4864    0.0000 C.3     1  UNL1       -0.0271
     27 C           9.0467   -1.5279    0.0000 C.3     1  UNL1       -0.0252
     28 C           9.0511    1.5136    0.0000 C.3     1  UNL1       -0.0036
     29 C           9.9468   -2.0522    0.0000 C.3     1  UNL1       -0.0278
     30 C          10.8348   -0.4864    0.0000 C.3     1  UNL1       -0.0466
     31 C           9.2565    2.4862    0.0000 C.3     1  UNL1       -0.0063
     32 C           8.1908    0.0103    0.0000 C.3     1  UNL1       -0.0227
     33 C           8.1870    1.0103    0.0000 C.3     1  UNL1        0.0592
     34 C          10.6535    1.6869    0.0000 C.3     1  UNL1       -0.0464
     35 C          10.8469   -1.5279    0.0000 C.3     1  UNL1       -0.0486
     36 C           9.9594   -3.1372    0.0000 C.3     1  UNL1       -0.0052
     37 C          10.2449    2.5931    0.0000 C.3     1  UNL1       -0.0467
     38 C           8.0968   -2.0522    0.0000 C.3     1  UNL1       -0.0447
     39 C          10.9070    0.1944    0.0000 C.3     1  UNL1       -0.0588
     40 C          10.9045    0.8471    0.0000 C.3     1  UNL1       -0.0587
     41 C           8.1826   -1.0246    0.0000 C.3     1  UNL1       -0.0590
     42 C           9.0218   -3.6833    0.0000 C.3     1  UNL1        0.0672
     43 C           8.5858    3.2279    0.0000 C.3     1  UNL1        0.0733
     44 C           8.0843   -3.1372    0.0000 C.3     1  UNL1       -0.0255
     45 C          10.9593   -3.1294    0.0000 C.3     1  UNL1       -0.0572
     46 C          10.4660   -3.9993    0.0000 C.3     1  UNL1       -0.0572
     47 C           9.3276    3.8986    0.0000 C.3     1  UNL1       -0.0202
     48 C           7.8441    2.5572    0.0000 C.3     1  UNL1       -0.0354
     49 C          10.2793    3.5916    0.0000 C.3     1  UNL1       -0.0319
     50 C           8.1558   -5.1833    0.0000 C.3     1  UNL1        0.1886
     51 C           8.2221    4.9214    0.0000 C.3     1  UNL1        0.1885
     52 C           8.1558   -6.1833    0.0000 C.3     1  UNL1        0.1406
     53 C           9.1998    5.1314    0.0000 C.3     1  UNL1        0.1341
     54 C          11.0210    4.2624    0.0000 C.2     1  UNL1       -0.0852
     55 C           7.2898   -6.6833    0.0000 C.3     1  UNL1        0.1144
     56 C           9.5068    6.0831    0.0000 C.3     1  UNL1        0.1141
     57 C           6.4237   -5.1833    0.0000 C.3     1  UNL1        0.1130
     58 C           7.8584    6.6148    0.0000 C.3     1  UNL1        0.1134
     59 C           6.4237   -6.1833    0.0000 C.3     1  UNL1        0.1119
     60 C           8.8361    6.8248    0.0000 C.3     1  UNL1        0.1119
     61 C          11.9727    3.9554    0.0000 C.2     1  UNL1       -0.0796
     62 C           5.5577   -4.6833    0.0000 C.3     1  UNL1        0.0730
     63 C           7.1877    7.3565    0.0000 C.3     1  UNL1        0.0796
     64 C           9.0218   -7.6833    0.0000 C.3     1  UNL1        0.1885
     65 C          12.7144    4.6261    0.0000 C.3     1  UNL1       -0.0440
     66 C          12.1827    2.9777    0.0000 C.3     1  UNL1       -0.0440
     67 C           9.8878   -8.1833    0.0000 C.3     1  UNL1        0.1341
     68 C           9.8878   -9.1833    0.0000 C.3     1  UNL1        0.1141
     69 C           8.1558   -9.1833    0.0000 C.3     1  UNL1        0.1130
     70 C           9.0218   -9.6833    0.0000 C.3     1  UNL1        0.1119
     71 C           5.5393    7.8883    0.0000 C.3     1  UNL1        0.1880
     72 C           7.2898   -9.6833    0.0000 C.3     1  UNL1        0.0730
     73 C           5.8463    8.8400    0.0000 C.3     1  UNL1        0.1341
     74 C           5.1756    9.5817    0.0000 C.3     1  UNL1        0.1141
     75 C           3.8909    8.4200    0.0000 C.3     1  UNL1        0.1130
     76 C           4.1979    9.3717    0.0000 C.3     1  UNL1        0.1119
     77 C           2.9132    8.2100    0.0000 C.3     1  UNL1        0.0730
     78 H           9.7933   -0.9142    0.0000 H       1  UNL1        0.0312
     79 H           8.3621    2.0115    0.0000 H       1  UNL1        0.0335
     80 H          10.6862   -2.4716    0.0000 H       1  UNL1        0.0312
     81 H          11.4469   -0.5854    0.0000 H       1  UNL1        0.0271
     82 H          11.0371    0.0997    0.0000 H       1  UNL1        0.0271
     83 H           9.5591    3.2805    0.0000 H       1  UNL1        0.0332
     84 H           7.5798    0.1156    0.0000 H       1  UNL1        0.0293
     85 H           7.9810   -0.5731    0.0000 H       1  UNL1        0.0293
     86 H           7.6512    0.6982    0.0000 H       1  UNL1        0.0596
     87 H          11.0208    1.1874    0.0000 H       1  UNL1        0.0271
     88 H          11.1888    1.9997    0.0000 H       1  UNL1        0.0271
     89 H          11.0627   -2.1092    0.0000 H       1  UNL1        0.0268
     90 H          11.4565   -1.4148    0.0000 H       1  UNL1        0.0268
     91 H          10.8337    2.7871    0.0000 H       1  UNL1        0.0269
     92 H          10.1138    3.1991    0.0000 H       1  UNL1        0.0269
     93 H           7.8945   -1.4662    0.0000 H       1  UNL1        0.0271
     94 H           7.4848   -2.1513    0.0000 H       1  UNL1        0.0271
     95 H          11.0170   -0.4158    0.0000 H       1  UNL1        0.0235
     96 H          11.5172    0.3044    0.0000 H       1  UNL1        0.0235
     97 H          10.7970    0.8046    0.0000 H       1  UNL1        0.0235
     98 H          10.7992    0.2361    0.0000 H       1  UNL1        0.0235
     99 H          11.5155    0.7418    0.0000 H       1  UNL1        0.0235
    100 H          11.0098    1.4581    0.0000 H       1  UNL1        0.0235
    101 H           8.4947   -0.4889    0.0000 H       1  UNL1        0.0235
    102 H           7.6469   -0.7125    0.0000 H       1  UNL1        0.0235
    103 H           7.8706   -1.5603    0.0000 H       1  UNL1        0.0235
    104 H           8.4843   -3.9922    0.0000 H       1  UNL1        0.0602
    105 H           7.4747   -3.0240    0.0000 H       1  UNL1        0.0290
    106 H           7.8685   -3.7184    0.0000 H       1  UNL1        0.0290
    107 H          10.9641   -3.7494    0.0000 H       1  UNL1        0.0236
    108 H          11.5793   -3.1247    0.0000 H       1  UNL1        0.0236
    109 H          10.9545   -2.5095    0.0000 H       1  UNL1        0.0236
    110 H           9.9315   -4.3134    0.0000 H       1  UNL1        0.0236
    111 H          10.7801   -4.5338    0.0000 H       1  UNL1        0.0236
    112 H          11.0005   -3.6852    0.0000 H       1  UNL1        0.0236
    113 H           6.7833    1.1949    0.0000 H       1  UNL1        0.2098
    114 H           9.6175    4.4467    0.0000 H       1  UNL1        0.0296
    115 H           8.8382    4.2793    0.0000 H       1  UNL1        0.0296
    116 H           7.4283    3.0171    0.0000 H       1  UNL1        0.0257
    117 H           7.3842    2.1414    0.0000 H       1  UNL1        0.0257
    118 H           8.2600    2.0974    0.0000 H       1  UNL1        0.0257
    119 H           9.9894    3.0436    0.0000 H       1  UNL1        0.0308
    120 H          10.7686    3.2110    0.0000 H       1  UNL1        0.0308
    121 H           8.6927   -5.4933    0.0000 H       1  UNL1        0.0938
    122 H           8.6380    4.4615    0.0000 H       1  UNL1        0.0938
    123 H           8.1558   -6.8033    0.0000 H       1  UNL1        0.0675
    124 H           9.8060    5.2616    0.0000 H       1  UNL1        0.0671
    125 H          10.8908    4.8685    0.0000 H       1  UNL1        0.0571
    126 H           6.7528   -6.9933    0.0000 H       1  UNL1        0.0648
    127 H           9.6972    6.6731    0.0000 H       1  UNL1        0.0648
    128 H           6.4237   -4.5633    0.0000 H       1  UNL1        0.0647
    129 H           7.2522    6.4846    0.0000 H       1  UNL1        0.0647
    130 H           6.4237   -6.8033    0.0000 H       1  UNL1        0.0647
    131 H           8.4203    7.2847    0.0000 H       1  UNL1        0.0647
    132 H          10.4767    4.5198    0.0000 H       1  UNL1        0.2101
    133 H           5.9562   -4.2083    0.0000 H       1  UNL1        0.0584
    134 H           5.1592   -4.2083    0.0000 H       1  UNL1        0.0584
    135 H           7.7128    7.6862    0.0000 H       1  UNL1        0.0587
    136 H           6.9542    7.9309    0.0000 H       1  UNL1        0.0587
    137 H           8.4849   -7.3733    0.0000 H       1  UNL1        0.0938
    138 H           6.7528   -7.9933    0.0000 H       1  UNL1        0.2100
    139 H          10.6749    6.8831    0.0000 H       1  UNL1        0.2100
    140 H          13.1303    4.1662    0.0000 H       1  UNL1        0.0274
    141 H          13.1743    5.0419    0.0000 H       1  UNL1        0.0274
    142 H          12.2986    5.0859    0.0000 H       1  UNL1        0.0274
    143 H          11.5765    2.8475    0.0000 H       1  UNL1        0.0274
    144 H          12.3129    2.3715    0.0000 H       1  UNL1        0.0274
    145 H          12.7889    3.1078    0.0000 H       1  UNL1        0.0274
    146 H           5.5577   -7.3033    0.0000 H       1  UNL1        0.2100
    147 H           8.7273    8.2364    0.0000 H       1  UNL1        0.2100
    148 H          10.4248   -8.4933    0.0000 H       1  UNL1        0.0671
    149 H           4.1548   -4.8733    0.0000 H       1  UNL1        0.2095
    150 H           9.8878   -9.8033    0.0000 H       1  UNL1        0.0648
    151 H           7.6189   -8.8733    0.0000 H       1  UNL1        0.0647
    152 H           8.4849   -9.9933    0.0000 H       1  UNL1        0.0647
    153 H           5.3490    7.2982    0.0000 H       1  UNL1        0.0937
    154 H          10.7539   -7.0633    0.0000 H       1  UNL1        0.2101
    155 H           7.0777   -9.1007    0.0000 H       1  UNL1        0.0584
    156 H           6.6792   -9.7909    0.0000 H       1  UNL1        0.0584
    157 H           6.0366    9.4300    0.0000 H       1  UNL1        0.0671
    158 H          11.2908   -9.3733    0.0000 H       1  UNL1        0.2100
    159 H           9.5588  -10.9933    0.0000 H       1  UNL1        0.2100
    160 H           4.7597   10.0416    0.0000 H       1  UNL1        0.0648
    161 H           3.7005    7.8299    0.0000 H       1  UNL1        0.0647
    162 H           3.5917    9.2415    0.0000 H       1  UNL1        0.0647
    163 H           7.8267  -10.9933    0.0000 H       1  UNL1        0.2095
    164 H           7.0143    9.6400    0.0000 H       1  UNL1        0.2101
    165 H           2.8902    8.8296    0.0000 H       1  UNL1        0.0584
    166 H           2.2990    8.2950    0.0000 H       1  UNL1        0.0584
    167 H           5.0667   10.9933    0.0000 H       1  UNL1        0.2100
    168 H           2.9210    9.9832    0.0000 H       1  UNL1        0.2100
    169 H           2.0000    7.1281    0.0000 H       1  UNL1        0.2095
@<TRIPOS>BOND
     1    33     1    1
     2     1   113    1
     3    42     2    1
     4    50     2    1
     5     3    43    1
     6    51     3    1
     7     4    50    1
     8     4    57    1
     9     5    51    1
    10     5    58    1
    11    52     6    1
    12    64     6    1
    13    53     7    1
    14     7   132    1
    15    55     8    1
    16     8   138    1
    17    56     9    1
    18     9   139    1
    19    59    10    1
    20    10   146    1
    21    60    11    1
    22    11   147    1
    23    12    63    1
    24    12    71    1
    25    13    64    1
    26    13    69    1
    27    14    62    1
    28    14   149    1
    29    67    15    1
    30    15   154    1
    31    68    16    1
    32    16   158    1
    33    17    71    1
    34    17    75    1
    35    70    18    1
    36    18   159    1
    37    19    72    1
    38    19   163    1
    39    73    20    1
    40    20   164    1
    41    74    21    1
    42    21   167    1
    43    76    22    1
    44    22   168    1
    45    23    77    1
    46    23   169    1
    47    24    25    1
    48    24    26    1
    49    24    30    1
    50    24    39    1
    51    25    28    1
    52    25    34    1
    53    25    40    1
    54    26    27    1
    55    26    32    1
    56    26    78    1
    57    27    29    1
    58    27    38    1
    59    27    41    1
    60    28    31    1
    61    28    33    1
    62    28    79    1
    63    29    35    1
    64    29    36    1
    65    29    80    1
    66    30    35    1
    67    30    81    1
    68    30    82    1
    69    31    37    1
    70    31    43    1
    71    31    83    1
    72    32    33    1
    73    32    84    1
    74    32    85    1
    75    33    86    1
    76    34    37    1
    77    34    87    1
    78    34    88    1
    79    35    89    1
    80    35    90    1
    81    36    42    1
    82    36    45    1
    83    36    46    1
    84    37    91    1
    85    37    92    1
    86    38    44    1
    87    38    93    1
    88    38    94    1
    89    39    95    1
    90    39    96    1
    91    39    97    1
    92    40    98    1
    93    40    99    1
    94    40   100    1
    95    41   101    1
    96    41   102    1
    97    41   103    1
    98    42    44    1
    99    42   104    1
   100    43    47    1
   101    43    48    1
   102    44   105    1
   103    44   106    1
   104    45   107    1
   105    45   108    1
   106    45   109    1
   107    46   110    1
   108    46   111    1
   109    46   112    1
   110    47    49    1
   111    47   114    1
   112    47   115    1
   113    48   116    1
   114    48   117    1
   115    48   118    1
   116    49    54    1
   117    49   119    1
   118    49   120    1
   119    50    52    1
   120    50   121    1
   121    51    53    1
   122    51   122    1
   123    52    55    1
   124    52   123    1
   125    53    56    1
   126    53   124    1
   127    54    61    2
   128    54   125    1
   129    55    59    1
   130    55   126    1
   131    56    60    1
   132    56   127    1
   133    57    59    1
   134    57    62    1
   135    57   128    1
   136    58    60    1
   137    58    63    1
   138    58   129    1
   139    59   130    1
   140    60   131    1
   141    61    65    1
   142    61    66    1
   143    62   133    1
   144    62   134    1
   145    63   135    1
   146    63   136    1
   147    64    67    1
   148    64   137    1
   149    65   140    1
   150    65   141    1
   151    65   142    1
   152    66   143    1
   153    66   144    1
   154    66   145    1
   155    67    68    1
   156    67   148    1
   157    68    70    1
   158    68   150    1
   159    69    70    1
   160    69    72    1
   161    69   151    1
   162    70   152    1
   163    71    73    1
   164    71   153    1
   165    72   155    1
   166    72   156    1
   167    73    74    1
   168    73   157    1
   169    74    76    1
   170    74   160    1
   171    75    76    1
   172    75    77    1
   173    75   161    1
   174    76   162    1
   175    77   165    1
   176    77   166    1
