@<TRIPOS>MOLECULE
IMPHY016123
 26 26 0 0 0
SMALL
GASTEIGER

@<TRIPOS>ATOM
      1 O           3.7320    2.8450    0.0000 O.3     1  UNL1       -0.3917
      2 O           2.8660   -2.6550    0.0000 O.3     1  UNL1       -0.4951
      3 C           2.8660    1.3450    0.0000 C.3     1  UNL1       -0.0018
      4 C           3.7320    1.8450    0.0000 C.3     1  UNL1        0.0564
      5 C           2.8660    0.3450    0.0000 C.ar    1  UNL1       -0.0447
      6 C           4.5981    1.3450    0.0000 C.3     1  UNL1       -0.0386
      7 C           3.7320   -0.1550    0.0000 C.ar    1  UNL1       -0.0550
      8 C           2.0000   -0.1550    0.0000 C.ar    1  UNL1       -0.0550
      9 C           3.7320   -1.1550    0.0000 C.ar    1  UNL1       -0.0197
     10 C           2.0000   -1.1550    0.0000 C.ar    1  UNL1       -0.0197
     11 C           2.8660   -1.6550    0.0000 C.ar    1  UNL1        0.1201
     12 C           2.0000   -3.1550    0.0000 C.3     1  UNL1        0.0788
     13 H           2.6540    1.9276    0.0000 H       1  UNL1        0.0338
     14 H           2.2554    1.2373    0.0000 H       1  UNL1        0.0338
     15 H           4.2690    2.1550    0.0000 H       1  UNL1        0.0594
     16 H           4.2881    0.8081    0.0000 H       1  UNL1        0.0255
     17 H           5.1350    1.0350    0.0000 H       1  UNL1        0.0255
     18 H           4.9081    1.8819    0.0000 H       1  UNL1        0.0255
     19 H           4.2690    0.1550    0.0000 H       1  UNL1        0.0621
     20 H           1.4631    0.1550    0.0000 H       1  UNL1        0.0621
     21 H           4.2690   -1.4650    0.0000 H       1  UNL1        0.0654
     22 H           1.4631   -1.4650    0.0000 H       1  UNL1        0.0654
     23 H           4.2690    3.1550    0.0000 H       1  UNL1        0.2098
     24 H           1.6900   -2.6181    0.0000 H       1  UNL1        0.0660
     25 H           1.4631   -3.4650    0.0000 H       1  UNL1        0.0660
     26 H           2.3100   -3.6919    0.0000 H       1  UNL1        0.0660
@<TRIPOS>BOND
     1     1     4    1
     2     1    23    1
     3     2    11    1
     4     2    12    1
     5     3     4    1
     6     3     5    1
     7     3    13    1
     8     3    14    1
     9     4     6    1
    10     4    15    1
    11     5     7   ar
    12     5     8   ar
    13     6    16    1
    14     6    17    1
    15     6    18    1
    16     7     9   ar
    17     7    19    1
    18     8    10   ar
    19     8    20    1
    20     9    11   ar
    21     9    21    1
    22    10    11   ar
    23    10    22    1
    24    12    24    1
    25    12    25    1
    26    12    26    1
