@<TRIPOS>MOLECULE
IMPHY009139
 178 188 0 0 0
SMALL
GASTEIGER

@<TRIPOS>ATOM
      1 O          16.0844    8.5403    0.0000 O.3     1  UNL1       -0.3448
      2 O          14.3119    9.4351    0.0000 O.3     1  UNL1       -0.3480
      3 O          14.6613    0.2963    0.0000 O.3     1  UNL1       -0.3454
      4 O          12.9292    0.2963    0.0000 O.3     1  UNL1       -0.3405
      5 O          14.6613   -1.7038    0.0000 O.3     1  UNL1       -0.3841
      6 O          12.9292   -2.7038    0.0000 O.3     1  UNL1       -0.3864
      7 O          11.1972   -1.7038    0.0000 O.3     1  UNL1       -0.3401
      8 O          11.1972    1.2962    0.0000 O.3     1  UNL1       -0.3924
      9 O          10.3312   -0.2037    0.0000 O.3     1  UNL1       -0.3405
     10 O           9.4651   -2.7038    0.0000 O.3     1  UNL1       -0.3378
     11 O           7.7331   -1.7038    0.0000 O.3     1  UNL1       -0.3864
     12 O           7.7331    0.2963    0.0000 O.3     1  UNL1       -0.3865
     13 O           7.7331   -2.7038    0.0000 O.3     1  UNL1       -0.3405
     14 O           8.5991    1.7962    0.0000 O.3     1  UNL1       -0.3924
     15 O           9.4651   -4.7038    0.0000 O.3     1  UNL1       -0.3841
     16 O           7.7331   -5.7038    0.0000 O.3     1  UNL1       -0.3401
     17 O           6.0010   -4.7038    0.0000 O.3     1  UNL1       -0.3865
     18 O           5.1350   -3.2038    0.0000 O.3     1  UNL1       -0.3924
     19 O           6.0010   -5.7038    0.0000 O.3     1  UNL1       -0.3405
     20 O           7.7331   -7.7038    0.0000 O.3     1  UNL1       -0.3841
     21 O           4.2690   -7.7038    0.0000 O.3     1  UNL1       -0.3401
     22 O           6.0010   -8.7038    0.0000 O.3     1  UNL1       -0.3864
     23 O           5.1350   -9.2038    0.0000 O.3     1  UNL1       -0.3431
     24 O           3.4030   -6.2038    0.0000 O.3     1  UNL1       -0.3924
     25 O           2.5369   -8.7038    0.0000 O.3     1  UNL1       -0.3841
     26 O           2.5369  -10.7037    0.0000 O.3     1  UNL1       -0.3864
     27 O           4.2690  -11.7037    0.0000 O.3     1  UNL1       -0.3866
     28 C          14.6906    6.4931    0.0000 C.3     1  UNL1       -0.0233
     29 C          15.5585    5.9965    0.0000 C.3     1  UNL1       -0.0298
     30 C          15.5624    4.9965    0.0000 C.3     1  UNL1       -0.0343
     31 C          14.8960    7.4657    0.0000 C.3     1  UNL1       -0.0015
     32 C          14.6983    4.4931    0.0000 C.3     1  UNL1       -0.0323
     33 C          15.8843    7.5726    0.0000 C.3     1  UNL1        0.0660
     34 C          14.6862    3.4516    0.0000 C.3     1  UNL1       -0.0260
     35 C          16.2929    6.6664    0.0000 C.3     1  UNL1       -0.0226
     36 C          13.8265    5.9898    0.0000 C.3     1  UNL1       -0.0467
     37 C          13.8303    4.9898    0.0000 C.3     1  UNL1       -0.0489
     38 C          14.4937    8.3683    0.0000 C.3     1  UNL1        0.0160
     39 C          15.5863    2.9273    0.0000 C.3     1  UNL1       -0.0330
     40 C          16.4743    4.4931    0.0000 C.3     1  UNL1       -0.0494
     41 C          15.2267    9.0311    0.0000 C.3     1  UNL1        0.1732
     42 C          16.4863    3.4516    0.0000 C.3     1  UNL1       -0.0494
     43 C          13.8226    6.9898    0.0000 C.3     1  UNL1       -0.0590
     44 C          13.7363    2.9273    0.0000 C.3     1  UNL1       -0.0448
     45 C          15.5988    1.8424    0.0000 C.3     1  UNL1       -0.0232
     46 C          13.8221    3.9549    0.0000 C.3     1  UNL1       -0.0590
     47 C          13.7238    1.8424    0.0000 C.3     1  UNL1       -0.0260
     48 C          13.5153    8.5750    0.0000 C.3     1  UNL1       -0.0572
     49 C          14.6613    1.2962    0.0000 C.3     1  UNL1        0.0621
     50 C          16.0339    9.6213    0.0000 C.3     1  UNL1        0.0020
     51 C          15.9264   10.6155    0.0000 C.3     1  UNL1       -0.0435
     52 C          14.2044   10.4293    0.0000 C.3     1  UNL1        0.0535
     53 C          15.0117   11.0195    0.0000 C.3     1  UNL1       -0.0201
     54 C          14.9042   12.0137    0.0000 C.3     1  UNL1       -0.0603
     55 C          13.7953   -0.2037    0.0000 C.3     1  UNL1        0.1882
     56 C          13.7953   -1.2038    0.0000 C.3     1  UNL1        0.1341
     57 C          12.9292   -1.7038    0.0000 C.3     1  UNL1        0.1144
     58 C          12.0632   -0.2037    0.0000 C.3     1  UNL1        0.1134
     59 C          12.0632   -1.2038    0.0000 C.3     1  UNL1        0.1184
     60 C          11.1972    0.2963    0.0000 C.3     1  UNL1        0.0730
     61 C          10.3312   -1.2038    0.0000 C.3     1  UNL1        0.1888
     62 C           9.4651   -1.7038    0.0000 C.3     1  UNL1        0.1406
     63 C           8.5991   -1.2038    0.0000 C.3     1  UNL1        0.1144
     64 C           9.4651    0.2963    0.0000 C.3     1  UNL1        0.1130
     65 C           8.5991   -0.2037    0.0000 C.3     1  UNL1        0.1119
     66 C           9.4651    1.2962    0.0000 C.3     1  UNL1        0.0730
     67 C           8.5991   -3.2038    0.0000 C.3     1  UNL1        0.1886
     68 C           8.5991   -4.2038    0.0000 C.3     1  UNL1        0.1345
     69 C           7.7331   -4.7038    0.0000 C.3     1  UNL1        0.1206
     70 C           6.8671   -3.2038    0.0000 C.3     1  UNL1        0.1130
     71 C           6.8671   -4.2038    0.0000 C.3     1  UNL1        0.1123
     72 C           6.0010   -2.7038    0.0000 C.3     1  UNL1        0.0730
     73 C           6.8671   -6.2038    0.0000 C.3     1  UNL1        0.1884
     74 C           6.8671   -7.2038    0.0000 C.3     1  UNL1        0.1341
     75 C           6.0010   -7.7038    0.0000 C.3     1  UNL1        0.1144
     76 C           5.1350   -7.2038    0.0000 C.3     1  UNL1        0.1184
     77 C           5.1350   -6.2038    0.0000 C.3     1  UNL1        0.1134
     78 C           4.2690   -5.7038    0.0000 C.3     1  UNL1        0.0730
     79 C           4.2690   -8.7038    0.0000 C.3     1  UNL1        0.1883
     80 C           3.4030   -9.2038    0.0000 C.3     1  UNL1        0.1341
     81 C           3.4030  -10.2037    0.0000 C.3     1  UNL1        0.1140
     82 C           4.2690  -10.7037    0.0000 C.3     1  UNL1        0.1095
     83 C           5.1350  -10.2037    0.0000 C.3     1  UNL1        0.0873
     84 C           6.0010  -10.7037    0.0000 C.3     1  UNL1       -0.0361
     85 H          16.3368    5.6548    0.0000 H       1  UNL1        0.0310
     86 H          16.2935    5.4300    0.0000 H       1  UNL1        0.0306
     87 H          14.0507    7.3762    0.0000 H       1  UNL1        0.0335
     88 H          15.4327    4.0653    0.0000 H       1  UNL1        0.0309
     89 H          16.7292    7.6658    0.0000 H       1  UNL1        0.0600
     90 H          16.6603    6.1670    0.0000 H       1  UNL1        0.0293
     91 H          16.8282    6.9792    0.0000 H       1  UNL1        0.0293
     92 H          13.6122    6.5716    0.0000 H       1  UNL1        0.0271
     93 H          13.2163    5.8798    0.0000 H       1  UNL1        0.0271
     94 H          13.2193    5.0951    0.0000 H       1  UNL1        0.0268
     95 H          13.6205    4.4064    0.0000 H       1  UNL1        0.0268
     96 H          14.3322    8.9669    0.0000 H       1  UNL1        0.0354
     97 H          16.3257    2.5080    0.0000 H       1  UNL1        0.0307
     98 H          17.0863    4.3941    0.0000 H       1  UNL1        0.0268
     99 H          16.6766    5.0792    0.0000 H       1  UNL1        0.0268
    100 H          16.7021    2.8703    0.0000 H       1  UNL1        0.0268
    101 H          17.0959    3.5647    0.0000 H       1  UNL1        0.0268
    102 H          14.1305    7.5279    0.0000 H       1  UNL1        0.0235
    103 H          13.2845    7.2977    0.0000 H       1  UNL1        0.0235
    104 H          13.5147    6.4517    0.0000 H       1  UNL1        0.0235
    105 H          13.5340    3.5134    0.0000 H       1  UNL1        0.0271
    106 H          13.1243    2.8283    0.0000 H       1  UNL1        0.0271
    107 H          15.8146    1.2611    0.0000 H       1  UNL1        0.0293
    108 H          16.2084    1.9555    0.0000 H       1  UNL1        0.0293
    109 H          14.1342    4.4906    0.0000 H       1  UNL1        0.0235
    110 H          13.2864    4.2670    0.0000 H       1  UNL1        0.0235
    111 H          13.5101    3.4192    0.0000 H       1  UNL1        0.0235
    112 H          13.1142    1.9555    0.0000 H       1  UNL1        0.0290
    113 H          13.5080    1.2611    0.0000 H       1  UNL1        0.0290
    114 H          13.6435    9.1816    0.0000 H       1  UNL1        0.0234
    115 H          12.9087    8.7032    0.0000 H       1  UNL1        0.0234
    116 H          13.3872    7.9684    0.0000 H       1  UNL1        0.0234
    117 H          14.1238    0.9873    0.0000 H       1  UNL1        0.0597
    118 H          16.3074    9.0649    0.0000 H       1  UNL1        0.0317
    119 H          16.6294    9.7940    0.0000 H       1  UNL1        0.0317
    120 H          16.5451   10.5741    0.0000 H       1  UNL1        0.0270
    121 H          16.0746   11.2176    0.0000 H       1  UNL1        0.0270
    122 H          13.9310   10.9858    0.0000 H       1  UNL1        0.0563
    123 H          13.6090   10.2567    0.0000 H       1  UNL1        0.0563
    124 H          14.4445   11.2700    0.0000 H       1  UNL1        0.0320
    125 H          15.5206   12.0804    0.0000 H       1  UNL1        0.0233
    126 H          14.8375   12.6302    0.0000 H       1  UNL1        0.0233
    127 H          14.2878   11.9471    0.0000 H       1  UNL1        0.0233
    128 H          14.3322   -0.5137    0.0000 H       1  UNL1        0.0937
    129 H          13.7953   -1.8238    0.0000 H       1  UNL1        0.0671
    130 H          12.3923   -2.0138    0.0000 H       1  UNL1        0.0648
    131 H          12.0632    0.4163    0.0000 H       1  UNL1        0.0647
    132 H          11.5263   -0.8937    0.0000 H       1  UNL1        0.0651
    133 H          15.1982   -1.3938    0.0000 H       1  UNL1        0.2101
    134 H          10.5866    0.4039    0.0000 H       1  UNL1        0.0584
    135 H          10.9851   -0.2864    0.0000 H       1  UNL1        0.0584
    136 H          13.4662   -3.0138    0.0000 H       1  UNL1        0.2100
    137 H          10.3312   -1.8238    0.0000 H       1  UNL1        0.0938
    138 H          10.6603    1.6062    0.0000 H       1  UNL1        0.2095
    139 H           8.9282   -2.0138    0.0000 H       1  UNL1        0.0675
    140 H           8.0622   -0.8937    0.0000 H       1  UNL1        0.0648
    141 H          10.0021    0.6063    0.0000 H       1  UNL1        0.0647
    142 H           8.5991    0.4163    0.0000 H       1  UNL1        0.0647
    143 H          10.0757    1.1886    0.0000 H       1  UNL1        0.0584
    144 H           9.6772    1.8789    0.0000 H       1  UNL1        0.0584
    145 H           9.1360   -3.5138    0.0000 H       1  UNL1        0.0938
    146 H           7.1962   -1.3938    0.0000 H       1  UNL1        0.2100
    147 H           7.1962   -0.0137    0.0000 H       1  UNL1        0.2100
    148 H           8.5991   -4.8238    0.0000 H       1  UNL1        0.0671
    149 H           7.1962   -5.0138    0.0000 H       1  UNL1        0.0651
    150 H           8.5991    2.4162    0.0000 H       1  UNL1        0.2095
    151 H           6.8671   -2.5838    0.0000 H       1  UNL1        0.0647
    152 H           6.3301   -3.8938    0.0000 H       1  UNL1        0.0647
    153 H           9.4651   -5.3238    0.0000 H       1  UNL1        0.2101
    154 H           6.3996   -2.2288    0.0000 H       1  UNL1        0.0584
    155 H           5.6025   -2.2288    0.0000 H       1  UNL1        0.0584
    156 H           6.8671   -5.5838    0.0000 H       1  UNL1        0.0938
    157 H           5.4641   -4.3938    0.0000 H       1  UNL1        0.2100
    158 H           6.8671   -7.8238    0.0000 H       1  UNL1        0.0671
    159 H           5.4641   -8.0138    0.0000 H       1  UNL1        0.0648
    160 H           4.5981   -2.8938    0.0000 H       1  UNL1        0.2095
    161 H           4.5981   -6.8938    0.0000 H       1  UNL1        0.0651
    162 H           5.1350   -5.5838    0.0000 H       1  UNL1        0.0647
    163 H           4.6675   -5.2288    0.0000 H       1  UNL1        0.0584
    164 H           3.8705   -5.2288    0.0000 H       1  UNL1        0.0584
    165 H           7.7331   -8.3238    0.0000 H       1  UNL1        0.2101
    166 H           3.7320   -8.3938    0.0000 H       1  UNL1        0.0938
    167 H           6.5380   -9.0138    0.0000 H       1  UNL1        0.2100
    168 H           3.9650   -8.5838    0.0000 H       1  UNL1        0.0671
    169 H           3.4030  -10.8237    0.0000 H       1  UNL1        0.0648
    170 H           4.8059  -11.0137    0.0000 H       1  UNL1        0.0646
    171 H           5.6720   -9.8938    0.0000 H       1  UNL1        0.0621
    172 H           2.8660   -5.8938    0.0000 H       1  UNL1        0.2095
    173 H           5.6910  -11.2407    0.0000 H       1  UNL1        0.0255
    174 H           6.5380  -11.0137    0.0000 H       1  UNL1        0.0255
    175 H           6.3110  -10.1668    0.0000 H       1  UNL1        0.0255
    176 H           2.0000   -9.0138    0.0000 H       1  UNL1        0.2101
    177 H           2.5369  -11.3237    0.0000 H       1  UNL1        0.2100
    178 H           4.8059  -12.0137    0.0000 H       1  UNL1        0.2100
@<TRIPOS>BOND
     1     1    33    1
     2    41     1    1
     3     2    41    1
     4     2    52    1
     5    49     3    1
     6    55     3    1
     7     4    55    1
     8     4    58    1
     9    56     5    1
    10     5   133    1
    11    57     6    1
    12     6   136    1
    13    59     7    1
    14    61     7    1
    15     8    60    1
    16     8   138    1
    17     9    61    1
    18     9    64    1
    19    62    10    1
    20    67    10    1
    21    63    11    1
    22    11   146    1
    23    65    12    1
    24    12   147    1
    25    13    67    1
    26    13    70    1
    27    14    66    1
    28    14   150    1
    29    68    15    1
    30    15   153    1
    31    69    16    1
    32    73    16    1
    33    71    17    1
    34    17   157    1
    35    18    72    1
    36    18   160    1
    37    19    73    1
    38    19    77    1
    39    74    20    1
    40    20   165    1
    41    76    21    1
    42    79    21    1
    43    75    22    1
    44    22   167    1
    45    23    79    1
    46    23    83    1
    47    24    78    1
    48    24   172    1
    49    80    25    1
    50    25   176    1
    51    81    26    1
    52    26   177    1
    53    82    27    1
    54    27   178    1
    55    28    29    1
    56    28    31    1
    57    28    36    1
    58    28    43    1
    59    29    30    1
    60    29    35    1
    61    29    85    1
    62    30    32    1
    63    30    40    1
    64    30    86    1
    65    31    33    1
    66    31    38    1
    67    31    87    1
    68    32    34    1
    69    32    37    1
    70    32    88    1
    71    33    35    1
    72    33    89    1
    73    34    39    1
    74    34    44    1
    75    34    46    1
    76    35    90    1
    77    35    91    1
    78    36    37    1
    79    36    92    1
    80    36    93    1
    81    37    94    1
    82    37    95    1
    83    38    41    1
    84    38    48    1
    85    38    96    1
    86    39    42    1
    87    39    45    1
    88    39    97    1
    89    40    42    1
    90    40    98    1
    91    40    99    1
    92    41    50    1
    93    42   100    1
    94    42   101    1
    95    43   102    1
    96    43   103    1
    97    43   104    1
    98    44    47    1
    99    44   105    1
   100    44   106    1
   101    45    49    1
   102    45   107    1
   103    45   108    1
   104    46   109    1
   105    46   110    1
   106    46   111    1
   107    47    49    1
   108    47   112    1
   109    47   113    1
   110    48   114    1
   111    48   115    1
   112    48   116    1
   113    49   117    1
   114    50    51    1
   115    50   118    1
   116    50   119    1
   117    51    53    1
   118    51   120    1
   119    51   121    1
   120    52    53    1
   121    52   122    1
   122    52   123    1
   123    53    54    1
   124    53   124    1
   125    54   125    1
   126    54   126    1
   127    54   127    1
   128    55    56    1
   129    55   128    1
   130    56    57    1
   131    56   129    1
   132    57    59    1
   133    57   130    1
   134    58    59    1
   135    58    60    1
   136    58   131    1
   137    59   132    1
   138    60   134    1
   139    60   135    1
   140    61    62    1
   141    61   137    1
   142    62    63    1
   143    62   139    1
   144    63    65    1
   145    63   140    1
   146    64    65    1
   147    64    66    1
   148    64   141    1
   149    65   142    1
   150    66   143    1
   151    66   144    1
   152    67    68    1
   153    67   145    1
   154    68    69    1
   155    68   148    1
   156    69    71    1
   157    69   149    1
   158    70    71    1
   159    70    72    1
   160    70   151    1
   161    71   152    1
   162    72   154    1
   163    72   155    1
   164    73    74    1
   165    73   156    1
   166    74    75    1
   167    74   158    1
   168    75    76    1
   169    75   159    1
   170    76    77    1
   171    76   161    1
   172    77    78    1
   173    77   162    1
   174    78   163    1
   175    78   164    1
   176    79    80    1
   177    79   166    1
   178    80    81    1
   179    80   168    1
   180    81    82    1
   181    81   169    1
   182    82    83    1
   183    82   170    1
   184    83    84    1
   185    83   171    1
   186    84   173    1
   187    84   174    1
   188    84   175    1
