@<TRIPOS>MOLECULE
IMPHY005111
 83 88 0 0 0
SMALL
GASTEIGER

@<TRIPOS>ATOM
      1 O           8.6322    1.6674    0.0000 O.3     1  UNL1       -0.3876
      2 O           8.5868    4.6082    0.0000 O.3     1  UNL1       -0.3911
      3 O           6.8671   -3.5361    0.0000 O.3     1  UNL1       -0.3454
      4 O           5.0281    5.1811    0.0000 O.3     1  UNL1       -0.4571
      5 O           5.1350   -3.5361    0.0000 O.3     1  UNL1       -0.3405
      6 O           5.6632    6.8461    0.0000 O.2     1  UNL1       -0.2456
      7 O           6.8671   -5.5361    0.0000 O.3     1  UNL1       -0.3841
      8 O           5.1350   -6.5361    0.0000 O.3     1  UNL1       -0.3864
      9 O           3.4030   -5.5361    0.0000 O.3     1  UNL1       -0.3865
     10 O           2.5369   -4.0361    0.0000 O.3     1  UNL1       -0.3924
     11 C           7.7643    2.1641    0.0000 C.3     1  UNL1        0.0775
     12 C           7.7681    1.1641    0.0000 C.3     1  UNL1       -0.0082
     13 C           6.9040    0.6608    0.0000 C.3     1  UNL1       -0.0299
     14 C           6.8963    2.6608    0.0000 C.3     1  UNL1        0.0060
     15 C           6.8920   -0.3808    0.0000 C.3     1  UNL1       -0.0259
     16 C           7.7920   -0.9051    0.0000 C.3     1  UNL1       -0.0330
     17 C           7.1018    3.6334    0.0000 C.3     1  UNL1        0.0179
     18 C           6.0361    1.1574    0.0000 C.3     1  UNL1       -0.0488
     19 C           6.0322    2.1574    0.0000 C.3     1  UNL1       -0.0441
     20 C           8.4987    2.8340    0.0000 C.3     1  UNL1        0.0035
     21 C           8.6801    0.6608    0.0000 C.3     1  UNL1       -0.0470
     22 C           8.0901    3.7402    0.0000 C.3     1  UNL1        0.0651
     23 C           8.6921   -0.3808    0.0000 C.3     1  UNL1       -0.0493
     24 C           5.9421   -0.9051    0.0000 C.3     1  UNL1       -0.0448
     25 C           7.8046   -1.9900    0.0000 C.3     1  UNL1       -0.0232
     26 C           6.0284    3.1574    0.0000 C.3     1  UNL1       -0.0563
     27 C           6.0279    0.1225    0.0000 C.3     1  UNL1       -0.0590
     28 C           5.9295   -1.9900    0.0000 C.3     1  UNL1       -0.0260
     29 C           6.8671   -2.5361    0.0000 C.3     1  UNL1        0.0621
     30 C           6.4311    4.3751    0.0000 C.2     1  UNL1       -0.0198
     31 C           5.4368    4.2684    0.0000 C.3     1  UNL1        0.1148
     32 C           6.6369    5.3537    0.0000 C.2     1  UNL1        0.0253
     33 C           6.0010   -4.0361    0.0000 C.3     1  UNL1        0.1882
     34 C           5.7698    5.8518    0.0000 C.2     1  UNL1        0.3323
     35 C           6.0010   -5.0361    0.0000 C.3     1  UNL1        0.1341
     36 C           5.1350   -5.5361    0.0000 C.3     1  UNL1        0.1141
     37 C           4.2690   -4.0361    0.0000 C.3     1  UNL1        0.1130
     38 C           4.2690   -5.0361    0.0000 C.3     1  UNL1        0.1119
     39 C           3.4030   -3.5361    0.0000 C.3     1  UNL1        0.0730
     40 H           8.4993    1.5976    0.0000 H       1  UNL1        0.0331
     41 H           7.6385    0.2329    0.0000 H       1  UNL1        0.0310
     42 H           8.5314   -1.3244    0.0000 H       1  UNL1        0.0307
     43 H           7.3225    4.2128    0.0000 H       1  UNL1        0.0378
     44 H           5.4251    1.2627    0.0000 H       1  UNL1        0.0268
     45 H           5.8263    0.5740    0.0000 H       1  UNL1        0.0268
     46 H           5.8179    2.7392    0.0000 H       1  UNL1        0.0272
     47 H           5.4221    2.0474    0.0000 H       1  UNL1        0.0272
     48 H           8.8661    2.3346    0.0000 H       1  UNL1        0.0318
     49 H           9.0340    3.1468    0.0000 H       1  UNL1        0.0318
     50 H           9.2921    0.5617    0.0000 H       1  UNL1        0.0269
     51 H           8.8824    1.2468    0.0000 H       1  UNL1        0.0269
     52 H           8.7094    3.7104    0.0000 H       1  UNL1        0.0600
     53 H           8.9079   -0.9620    0.0000 H       1  UNL1        0.0268
     54 H           9.3017   -0.2677    0.0000 H       1  UNL1        0.0268
     55 H           5.7398   -0.3190    0.0000 H       1  UNL1        0.0271
     56 H           5.3300   -1.0041    0.0000 H       1  UNL1        0.0271
     57 H           8.0204   -2.5712    0.0000 H       1  UNL1        0.0293
     58 H           8.4142   -1.8769    0.0000 H       1  UNL1        0.0293
     59 H           6.3363    3.6955    0.0000 H       1  UNL1        0.0236
     60 H           5.4902    3.4653    0.0000 H       1  UNL1        0.0236
     61 H           5.7204    2.6193    0.0000 H       1  UNL1        0.0236
     62 H           6.3400    0.6583    0.0000 H       1  UNL1        0.0235
     63 H           5.4922    0.4346    0.0000 H       1  UNL1        0.0235
     64 H           5.7158   -0.4132    0.0000 H       1  UNL1        0.0235
     65 H           5.3199   -1.8769    0.0000 H       1  UNL1        0.0290
     66 H           5.7137   -2.5712    0.0000 H       1  UNL1        0.0290
     67 H           7.4046   -2.8451    0.0000 H       1  UNL1        0.0597
     68 H           9.1680    1.9795    0.0000 H       1  UNL1        0.2102
     69 H           9.2068    4.6106    0.0000 H       1  UNL1        0.2098
     70 H           4.8475    4.0756    0.0000 H       1  UNL1        0.0746
     71 H           5.5670    3.6623    0.0000 H       1  UNL1        0.0746
     72 H           7.2028    5.6070    0.0000 H       1  UNL1        0.0689
     73 H           6.0010   -3.4161    0.0000 H       1  UNL1        0.0937
     74 H           6.0010   -5.6561    0.0000 H       1  UNL1        0.0671
     75 H           4.5981   -5.8461    0.0000 H       1  UNL1        0.0648
     76 H           4.2690   -3.4161    0.0000 H       1  UNL1        0.0647
     77 H           3.7320   -4.7261    0.0000 H       1  UNL1        0.0647
     78 H           6.8671   -6.1561    0.0000 H       1  UNL1        0.2101
     79 H           3.8015   -3.0612    0.0000 H       1  UNL1        0.0584
     80 H           3.0044   -3.0612    0.0000 H       1  UNL1        0.0584
     81 H           4.5981   -6.8461    0.0000 H       1  UNL1        0.2100
     82 H           3.4030   -6.1561    0.0000 H       1  UNL1        0.2100
     83 H           2.0000   -3.7261    0.0000 H       1  UNL1        0.2095
@<TRIPOS>BOND
     1    11     1    1
     2     1    68    1
     3    22     2    1
     4     2    69    1
     5    29     3    1
     6    33     3    1
     7     4    31    1
     8     4    34    1
     9     5    33    1
    10     5    37    1
    11     6    34    2
    12    35     7    1
    13     7    78    1
    14    36     8    1
    15     8    81    1
    16    38     9    1
    17     9    82    1
    18    10    39    1
    19    10    83    1
    20    11    12    1
    21    11    14    1
    22    11    20    1
    23    12    13    1
    24    12    21    1
    25    12    40    1
    26    13    15    1
    27    13    18    1
    28    13    41    1
    29    14    17    1
    30    14    19    1
    31    14    26    1
    32    15    16    1
    33    15    24    1
    34    15    27    1
    35    16    23    1
    36    16    25    1
    37    16    42    1
    38    17    22    1
    39    17    30    1
    40    17    43    1
    41    18    19    1
    42    18    44    1
    43    18    45    1
    44    19    46    1
    45    19    47    1
    46    20    22    1
    47    20    48    1
    48    20    49    1
    49    21    23    1
    50    21    50    1
    51    21    51    1
    52    22    52    1
    53    23    53    1
    54    23    54    1
    55    24    28    1
    56    24    55    1
    57    24    56    1
    58    25    29    1
    59    25    57    1
    60    25    58    1
    61    26    59    1
    62    26    60    1
    63    26    61    1
    64    27    62    1
    65    27    63    1
    66    27    64    1
    67    28    29    1
    68    28    65    1
    69    28    66    1
    70    29    67    1
    71    30    31    1
    72    30    32    2
    73    31    70    1
    74    31    71    1
    75    32    34    1
    76    32    72    1
    77    33    35    1
    78    33    73    1
    79    35    36    1
    80    35    74    1
    81    36    38    1
    82    36    75    1
    83    37    38    1
    84    37    39    1
    85    37    76    1
    86    38    77    1
    87    39    79    1
    88    39    80    1
