@<TRIPOS>MOLECULE
IMPHY000191
 70 75 0 0 0
SMALL
GASTEIGER

@<TRIPOS>ATOM
      1 O           6.9202    1.4060    0.0000 O.2     1  UNL1       -0.4544
      2 O           9.6105   -1.1395    0.0000 O.3     1  UNL1       -0.4906
      3 O           7.8394   -4.2907    0.0000 O.3     1  UNL1       -0.4911
      4 O           3.4297    1.4291    0.0000 O.3     1  UNL1       -0.4910
      5 O           9.6427   -3.2309    0.0000 O.2     1  UNL1       -0.2801
      6 O          10.4383    3.4511    0.0000 O.3     1  UNL1       -0.5033
      7 O           8.6644    4.4753    0.0000 O.3     1  UNL1       -0.5032
      8 O           2.5381   -1.1291    0.0000 O.3     1  UNL1       -0.5033
      9 O           3.4528    3.4290    0.0000 O.3     1  UNL1       -0.5009
     10 O           2.5304   -3.1290    0.0000 O.3     1  UNL1       -0.5033
     11 O           5.1963    4.4089    0.0000 O.3     1  UNL1       -0.5032
     12 C           6.0102   -0.1008    0.0000 C.ar    1  UNL1        0.0082
     13 C           6.0022   -1.1424    0.0000 C.ar    1  UNL1       -0.0028
     14 C           6.9043   -1.6632    0.0000 C.ar    1  UNL1       -0.0019
     15 C           7.7863   -0.0940    0.0000 C.ar    1  UNL1        0.0296
     16 C           7.8023   -1.1355    0.0000 C.ar    1  UNL1        0.0391
     17 C           6.9202    0.4060    0.0000 C.ar    1  UNL1        0.1403
     18 C           5.1500    0.4092    0.0000 C.3     1  UNL1        0.0053
     19 C           5.1343   -1.6391    0.0000 C.ar    1  UNL1       -0.0132
     20 C           8.6523    0.4060    0.0000 C.ar    1  UNL1       -0.0396
     21 C           8.7543   -1.6561    0.0000 C.ar    1  UNL1        0.1786
     22 C           6.8959   -2.7482    0.0000 C.ar    1  UNL1       -0.0076
     23 C           8.6523    1.4060    0.0000 C.ar    1  UNL1        0.0216
     24 C           5.1616    1.4091    0.0000 C.ar    1  UNL1        0.0026
     25 C           7.7863    1.9060    0.0000 C.ar    1  UNL1        0.1393
     26 C           7.8356   -3.2907    0.0000 C.ar    1  UNL1        0.1708
     27 C           8.7710   -2.7410    0.0000 C.ar    1  UNL1        0.2620
     28 C           4.2702   -1.1357    0.0000 C.ar    1  UNL1       -0.0088
     29 C           5.1304   -2.6391    0.0000 C.ar    1  UNL1       -0.0503
     30 C           4.3014    1.9191    0.0000 C.ar    1  UNL1        0.1684
     31 C           9.5623    1.9129    0.0000 C.ar    1  UNL1       -0.0059
     32 C           7.7702    2.9475    0.0000 C.ar    1  UNL1        0.0264
     33 C           6.0334    1.8990    0.0000 C.ar    1  UNL1       -0.0511
     34 C           9.5703    2.9545    0.0000 C.ar    1  UNL1        0.1590
     35 C           8.6682    3.4753    0.0000 C.ar    1  UNL1        0.1618
     36 C           3.4022   -1.6324    0.0000 C.ar    1  UNL1        0.1588
     37 C           4.2625   -3.1357    0.0000 C.ar    1  UNL1       -0.0160
     38 C           4.3130    2.9190    0.0000 C.ar    1  UNL1        0.2011
     39 C           6.0449    2.8990    0.0000 C.ar    1  UNL1       -0.0160
     40 C           3.3984   -2.6324    0.0000 C.ar    1  UNL1        0.1582
     41 C           5.1847    3.4090    0.0000 C.ar    1  UNL1        0.1620
     42 C          10.4860   -1.6227    0.0000 C.3     1  UNL1        0.0790
     43 C           8.7074   -4.7874    0.0000 C.3     1  UNL1        0.0790
     44 C           3.4181    0.4292    0.0000 C.3     1  UNL1        0.0790
     45 H           4.5408    0.5239    0.0000 H       1  UNL1        0.0364
     46 H           4.9313   -0.1710    0.0000 H       1  UNL1        0.0364
     47 H           9.1892    0.0960    0.0000 H       1  UNL1        0.0632
     48 H           6.3578   -3.0561    0.0000 H       1  UNL1        0.0662
     49 H           4.2726   -0.5157    0.0000 H       1  UNL1        0.0661
     50 H           5.6661   -2.9511    0.0000 H       1  UNL1        0.0625
     51 H          10.0956    1.5967    0.0000 H       1  UNL1        0.0662
     52 H           7.2297    3.2513    0.0000 H       1  UNL1        0.0692
     53 H           6.5667    1.5829    0.0000 H       1  UNL1        0.0623
     54 H           4.2601   -3.7557    0.0000 H       1  UNL1        0.0655
     55 H           6.5854    3.2028    0.0000 H       1  UNL1        0.0655
     56 H          10.1864   -2.1655    0.0000 H       1  UNL1        0.0660
     57 H          11.0288   -1.9223    0.0000 H       1  UNL1        0.0660
     58 H          10.7856   -1.0799    0.0000 H       1  UNL1        0.0660
     59 H           8.3994   -5.3255    0.0000 H       1  UNL1        0.0660
     60 H           9.2455   -5.0953    0.0000 H       1  UNL1        0.0660
     61 H           9.0153   -4.2492    0.0000 H       1  UNL1        0.0660
     62 H          10.9740    3.1391    0.0000 H       1  UNL1        0.2923
     63 H           9.2001    4.7874    0.0000 H       1  UNL1        0.2923
     64 H           2.0000   -1.4370    0.0000 H       1  UNL1        0.2923
     65 H           2.7982    0.4364    0.0000 H       1  UNL1        0.0660
     66 H           3.4109   -0.1908    0.0000 H       1  UNL1        0.0660
     67 H           4.0381    0.4220    0.0000 H       1  UNL1        0.0660
     68 H           3.4600    4.0489    0.0000 H       1  UNL1        0.2924
     69 H           2.5280   -3.7490    0.0000 H       1  UNL1        0.2923
     70 H           5.7368    4.7127    0.0000 H       1  UNL1        0.2923
@<TRIPOS>BOND
     1     1    17   ar
     2     1    25   ar
     3     2    21    1
     4     2    42    1
     5     3    26    1
     6     3    43    1
     7     4    30    1
     8     4    44    1
     9     5    27    2
    10     6    34    1
    11     6    62    1
    12     7    35    1
    13     7    63    1
    14     8    36    1
    15     8    64    1
    16     9    38    1
    17     9    68    1
    18    10    40    1
    19    10    69    1
    20    11    41    1
    21    11    70    1
    22    12    13   ar
    23    12    17   ar
    24    12    18    1
    25    13    14   ar
    26    13    19    1
    27    14    16   ar
    28    14    22   ar
    29    15    16   ar
    30    15    17   ar
    31    15    20   ar
    32    16    21   ar
    33    18    24    1
    34    18    45    1
    35    18    46    1
    36    19    28   ar
    37    19    29   ar
    38    20    23   ar
    39    20    47    1
    40    21    27   ar
    41    22    26   ar
    42    22    48    1
    43    23    25   ar
    44    23    31   ar
    45    24    30   ar
    46    24    33   ar
    47    25    32   ar
    48    26    27   ar
    49    28    36   ar
    50    28    49    1
    51    29    37   ar
    52    29    50    1
    53    30    38   ar
    54    31    34   ar
    55    31    51    1
    56    32    35   ar
    57    32    52    1
    58    33    39   ar
    59    33    53    1
    60    34    35   ar
    61    36    40   ar
    62    37    40   ar
    63    37    54    1
    64    38    41   ar
    65    39    41   ar
    66    39    55    1
    67    42    56    1
    68    42    57    1
    69    42    58    1
    70    43    59    1
    71    43    60    1
    72    43    61    1
    73    44    65    1
    74    44    66    1
    75    44    67    1
