@<TRIPOS>MOLECULE
IMPHY012199
 42 42 0 0 0
SMALL
GASTEIGER

@<TRIPOS>ATOM
      1 O           5.4641    0.5950    0.0000 O.3     1  UNL1       -0.4612
      2 O           7.1962    0.5950    0.0000 O.2     1  UNL1       -0.2450
      3 O           4.5981    4.0950    0.0000 O.3     1  UNL1       -0.5032
      4 O           8.0622    4.0950    0.0000 O.3     1  UNL1       -0.5032
      5 O           6.3301    5.0950    0.0000 O.3     1  UNL1       -0.5009
      6 C           3.7320   -2.4050    0.0000 C.3     1  UNL1       -0.0530
      7 C           3.7320   -3.4050    0.0000 C.3     1  UNL1       -0.0531
      8 C           4.5981   -1.9050    0.0000 C.3     1  UNL1       -0.0500
      9 C           2.8660   -3.9050    0.0000 C.3     1  UNL1       -0.0533
     10 C           4.5981   -0.9050    0.0000 C.3     1  UNL1       -0.0185
     11 C           2.8660   -4.9050    0.0000 C.3     1  UNL1       -0.0559
     12 C           5.4641   -0.4050    0.0000 C.3     1  UNL1        0.0928
     13 C           2.0000   -5.4050    0.0000 C.3     1  UNL1       -0.0653
     14 C           6.3301    1.0950    0.0000 C.2     1  UNL1        0.3394
     15 C           6.3301    2.0950    0.0000 C.ar    1  UNL1        0.0661
     16 C           7.1962    2.5950    0.0000 C.ar    1  UNL1       -0.0023
     17 C           5.4641    2.5950    0.0000 C.ar    1  UNL1       -0.0023
     18 C           5.4641    3.5950    0.0000 C.ar    1  UNL1        0.1628
     19 C           7.1962    3.5950    0.0000 C.ar    1  UNL1        0.1628
     20 C           6.3301    4.0950    0.0000 C.ar    1  UNL1        0.2006
     21 H           3.5200   -1.8224    0.0000 H       1  UNL1        0.0265
     22 H           3.1215   -2.5127    0.0000 H       1  UNL1        0.0265
     23 H           3.9441   -3.9876    0.0000 H       1  UNL1        0.0265
     24 H           4.3426   -3.2973    0.0000 H       1  UNL1        0.0265
     25 H           4.8101   -2.4876    0.0000 H       1  UNL1        0.0266
     26 H           5.2087   -1.7973    0.0000 H       1  UNL1        0.0266
     27 H           2.6540   -3.3224    0.0000 H       1  UNL1        0.0265
     28 H           2.2554   -4.0127    0.0000 H       1  UNL1        0.0265
     29 H           4.3860   -0.3224    0.0000 H       1  UNL1        0.0298
     30 H           3.9875   -1.0127    0.0000 H       1  UNL1        0.0298
     31 H           3.0781   -5.4876    0.0000 H       1  UNL1        0.0263
     32 H           3.4766   -4.7973    0.0000 H       1  UNL1        0.0263
     33 H           5.6762   -0.9876    0.0000 H       1  UNL1        0.0697
     34 H           6.0747   -0.2973    0.0000 H       1  UNL1        0.0697
     35 H           1.6900   -4.8681    0.0000 H       1  UNL1        0.0230
     36 H           1.4631   -5.7150    0.0000 H       1  UNL1        0.0230
     37 H           2.3100   -5.9419    0.0000 H       1  UNL1        0.0230
     38 H           7.7331    2.2850    0.0000 H       1  UNL1        0.0663
     39 H           4.9272    2.2850    0.0000 H       1  UNL1        0.0663
     40 H           4.0611    3.7850    0.0000 H       1  UNL1        0.2923
     41 H           8.5991    3.7850    0.0000 H       1  UNL1        0.2923
     42 H           6.8671    5.4050    0.0000 H       1  UNL1        0.2924
@<TRIPOS>BOND
     1     1    12    1
     2     1    14    1
     3     2    14    2
     4     3    18    1
     5     3    40    1
     6     4    19    1
     7     4    41    1
     8     5    20    1
     9     5    42    1
    10     6     7    1
    11     6     8    1
    12     6    21    1
    13     6    22    1
    14     7     9    1
    15     7    23    1
    16     7    24    1
    17     8    10    1
    18     8    25    1
    19     8    26    1
    20     9    11    1
    21     9    27    1
    22     9    28    1
    23    10    12    1
    24    10    29    1
    25    10    30    1
    26    11    13    1
    27    11    31    1
    28    11    32    1
    29    12    33    1
    30    12    34    1
    31    13    35    1
    32    13    36    1
    33    13    37    1
    34    14    15    1
    35    15    16   ar
    36    15    17   ar
    37    16    19   ar
    38    16    38    1
    39    17    18   ar
    40    17    39    1
    41    18    20   ar
    42    19    20   ar
