@<TRIPOS>MOLECULE
IMPHY003119
 15 15 0 0 0
SMALL
GASTEIGER

@<TRIPOS>ATOM
      1 O           5.5202   -0.5852    0.0000 O.3     1  UNL1       -0.3708
      2 O           2.0000   -0.5852    0.0000 O.2     1  UNL1       -0.2705
      3 N           3.7601   -0.8639    0.0000 N.am    1  UNL1       -0.2832
      4 C           4.5691   -0.2761    0.0000 C.3     1  UNL1        0.1416
      5 C           3.2601    0.6749    0.0000 C.2     1  UNL1        0.0114
      6 C           4.2601    0.6749    0.0000 C.2     1  UNL1       -0.0300
      7 C           2.9511   -0.2761    0.0000 C.2     1  UNL1        0.2417
      8 C           2.6723    1.4839    0.0000 C.3     1  UNL1       -0.0350
      9 H           4.6661   -0.8885    0.0000 H       1  UNL1        0.0853
     10 H           4.6245    1.1765    0.0000 H       1  UNL1        0.0618
     11 H           3.7601   -1.4839    0.0000 H       1  UNL1        0.1518
     12 H           3.1739    1.8484    0.0000 H       1  UNL1        0.0279
     13 H           2.3079    1.9855    0.0000 H       1  UNL1        0.0279
     14 H           2.1707    1.1195    0.0000 H       1  UNL1        0.0279
     15 H           5.9809   -0.1703    0.0000 H       1  UNL1        0.2121
@<TRIPOS>BOND
     1     4     1    1
     2     1    15    1
     3     2     7    2
     4     3     4    1
     5     3     7   am
     6     3    11    1
     7     4     6    1
     8     4     9    1
     9     5     6    2
    10     5     7    1
    11     5     8    1
    12     6    10    1
    13     8    12    1
    14     8    13    1
    15     8    14    1
