@<TRIPOS>MOLECULE
IMPHY011122
 24 24 0 0 0
SMALL
GASTEIGER

@<TRIPOS>ATOM
      1 O           2.0000    2.2500    0.0000 O.2     1  UNL1       -0.2974
      2 C           2.8660    0.7500    0.0000 C.3     1  UNL1        0.0209
      3 C           2.0000    0.2500    0.0000 C.3     1  UNL1       -0.0396
      4 C           3.7320    0.2500    0.0000 C.3     1  UNL1       -0.0250
      5 C           2.0000   -0.7500    0.0000 C.3     1  UNL1       -0.0314
      6 C           2.8660   -1.2500    0.0000 C.2     1  UNL1       -0.0765
      7 C           3.7320   -0.7500    0.0000 C.2     1  UNL1       -0.0844
      8 C           2.8660    1.7500    0.0000 C.2     1  UNL1        0.1337
      9 C           2.8660   -2.2500    0.0000 C.3     1  UNL1       -0.0438
     10 C           3.7320    2.2500    0.0000 C.3     1  UNL1       -0.0058
     11 H           3.6022    1.1750    0.0000 H       1  UNL1        0.0380
     12 H           1.7880    0.8326    0.0000 H       1  UNL1        0.0275
     13 H           1.3894    0.1423    0.0000 H       1  UNL1        0.0275
     14 H           4.3426    0.1423    0.0000 H       1  UNL1        0.0314
     15 H           3.9441    0.8326    0.0000 H       1  UNL1        0.0314
     16 H           1.3894   -0.6423    0.0000 H       1  UNL1        0.0310
     17 H           1.7880   -1.3326    0.0000 H       1  UNL1        0.0310
     18 H           4.2690   -1.0600    0.0000 H       1  UNL1        0.0572
     19 H           2.2460   -2.2500    0.0000 H       1  UNL1        0.0274
     20 H           2.8660   -2.8700    0.0000 H       1  UNL1        0.0274
     21 H           3.4860   -2.2500    0.0000 H       1  UNL1        0.0274
     22 H           4.0420    1.7131    0.0000 H       1  UNL1        0.0306
     23 H           4.2690    2.5600    0.0000 H       1  UNL1        0.0306
     24 H           3.4220    2.7869    0.0000 H       1  UNL1        0.0306
@<TRIPOS>BOND
     1     1     8    2
     2     2     3    1
     3     2     4    1
     4     2     8    1
     5     2    11    1
     6     3     5    1
     7     3    12    1
     8     3    13    1
     9     4     7    1
    10     4    14    1
    11     4    15    1
    12     5     6    1
    13     5    16    1
    14     5    17    1
    15     6     7    2
    16     6     9    1
    17     7    18    1
    18     8    10    1
    19     9    19    1
    20     9    20    1
    21     9    21    1
    22    10    22    1
    23    10    23    1
    24    10    24    1
