@<TRIPOS>MOLECULE
IMPHY011078
 75 79 0 0 0
SMALL
GASTEIGER

@<TRIPOS>ATOM
      1 O           3.8459    0.1088    0.0000 O.3     1  UNL1       -0.3908
      2 O           9.9415    2.4638    0.0000 O.3     1  UNL1       -0.4574
      3 O           2.0024   -3.0005    0.0000 O.3     1  UNL1       -0.3914
      4 O          11.2307    3.6205    0.0000 O.2     1  UNL1       -0.2452
      5 O          12.8770    3.0824    0.0000 O.3     1  UNL1       -0.3902
      6 C           7.3955    0.0518    0.0000 C.3     1  UNL1       -0.0258
      7 C           7.3955   -0.9482    0.0000 C.3     1  UNL1       -0.0320
      8 C           6.5294   -1.4482    0.0000 C.3     1  UNL1       -0.0306
      9 C           5.6634   -0.9482    0.0000 C.3     1  UNL1       -0.0262
     10 C           8.3417    0.3565    0.0000 C.3     1  UNL1       -0.0294
     11 C           6.5294    0.5518    0.0000 C.3     1  UNL1       -0.0468
     12 C           4.7534   -1.4550    0.0000 C.3     1  UNL1        0.0181
     13 C           8.3417   -1.2529    0.0000 C.3     1  UNL1       -0.0492
     14 C           5.6634    0.0518    0.0000 C.3     1  UNL1       -0.0486
     15 C           8.9253   -0.4482    0.0000 C.3     1  UNL1       -0.0491
     16 C           6.5455   -2.4897    0.0000 C.3     1  UNL1       -0.0311
     17 C           8.6524    1.3070    0.0000 C.3     1  UNL1       -0.0030
     18 C           7.3955    1.0518    0.0000 C.3     1  UNL1       -0.0590
     19 C           4.7454   -2.4966    0.0000 C.2     1  UNL1       -0.0624
     20 C           3.8266   -0.8910    0.0000 C.3     1  UNL1        0.0669
     21 C           5.6475   -3.0175    0.0000 C.2     1  UNL1       -0.0838
     22 C           4.7611   -0.4551    0.0000 C.3     1  UNL1       -0.0532
     23 C           3.8100   -3.0464    0.0000 C.3     1  UNL1       -0.0049
     24 C           2.8787   -1.4189    0.0000 C.3     1  UNL1        0.0004
     25 C           9.6309    1.5133    0.0000 C.3     1  UNL1        0.1099
     26 C           2.8703   -2.5039    0.0000 C.3     1  UNL1        0.0613
     27 C           7.9845    2.0513    0.0000 C.3     1  UNL1       -0.0588
     28 C          10.2987    0.7690    0.0000 C.3     1  UNL1        0.0064
     29 C          11.2772    0.9752    0.0000 C.2     1  UNL1       -0.0570
     30 C          10.9200    2.6700    0.0000 C.2     1  UNL1        0.3376
     31 C          11.5879    1.9257    0.0000 C.2     1  UNL1        0.0608
     32 C          11.9451    0.2309    0.0000 C.3     1  UNL1       -0.0428
     33 C          12.5664    2.1319    0.0000 C.3     1  UNL1        0.0759
     34 H           7.4854   -1.7934    0.0000 H       1  UNL1        0.0309
     35 H           7.2688   -1.8675    0.0000 H       1  UNL1        0.0310
     36 H           6.3995   -0.5232    0.0000 H       1  UNL1        0.0313
     37 H           9.1814    0.4884    0.0000 H       1  UNL1        0.0310
     38 H           6.9280    1.0268    0.0000 H       1  UNL1        0.0271
     39 H           6.1309    1.0268    0.0000 H       1  UNL1        0.0271
     40 H           8.0907   -1.8198    0.0000 H       1  UNL1        0.0268
     41 H           8.8791   -1.5622    0.0000 H       1  UNL1        0.0268
     42 H           5.4514    0.6344    0.0000 H       1  UNL1        0.0268
     43 H           5.0528   -0.0559    0.0000 H       1  UNL1        0.0268
     44 H           9.3862   -0.8629    0.0000 H       1  UNL1        0.0268
     45 H           9.3862   -0.0335    0.0000 H       1  UNL1        0.0268
     46 H           6.7635   -3.0701    0.0000 H       1  UNL1        0.0310
     47 H           7.1546   -2.3742    0.0000 H       1  UNL1        0.0310
     48 H           8.8450    1.8964    0.0000 H       1  UNL1        0.0337
     49 H           8.0155    1.0518    0.0000 H       1  UNL1        0.0235
     50 H           7.3955    1.6718    0.0000 H       1  UNL1        0.0235
     51 H           6.7755    1.0518    0.0000 H       1  UNL1        0.0235
     52 H           3.2951   -0.5717    0.0000 H       1  UNL1        0.0603
     53 H           5.6499   -3.6375    0.0000 H       1  UNL1        0.0572
     54 H           5.3811   -0.4599    0.0000 H       1  UNL1        0.0239
     55 H           4.7659    0.1649    0.0000 H       1  UNL1        0.0239
     56 H           4.1412   -0.4503    0.0000 H       1  UNL1        0.0239
     57 H           3.4127   -3.5223    0.0000 H       1  UNL1        0.0335
     58 H           4.2109   -3.5193    0.0000 H       1  UNL1        0.0335
     59 H           2.6742   -0.8336    0.0000 H       1  UNL1        0.0315
     60 H           2.2670   -1.5203    0.0000 H       1  UNL1        0.0315
     61 H          10.4626    1.6886    0.0000 H       1  UNL1        0.0740
     62 H           2.8691   -3.1239    0.0000 H       1  UNL1        0.0597
     63 H           8.4460    2.4654    0.0000 H       1  UNL1        0.0234
     64 H           7.5704    2.5128    0.0000 H       1  UNL1        0.0234
     65 H           7.5230    1.6373    0.0000 H       1  UNL1        0.0234
     66 H           9.7724    0.4413    0.0000 H       1  UNL1        0.0346
     67 H          10.5300    0.1937    0.0000 H       1  UNL1        0.0346
     68 H           3.3150    0.4291    0.0000 H       1  UNL1        0.2098
     69 H           2.0000   -3.6205    0.0000 H       1  UNL1        0.2098
     70 H          11.4836   -0.1832    0.0000 H       1  UNL1        0.0275
     71 H          12.3591   -0.2306    0.0000 H       1  UNL1        0.0275
     72 H          12.4065    0.6449    0.0000 H       1  UNL1        0.0275
     73 H          12.5869    1.5123    0.0000 H       1  UNL1        0.0609
     74 H          13.1802    2.0446    0.0000 H       1  UNL1        0.0609
     75 H          13.4837    3.2103    0.0000 H       1  UNL1        0.2099
@<TRIPOS>BOND
     1    20     1    1
     2     1    68    1
     3     2    25    1
     4     2    30    1
     5    26     3    1
     6     3    69    1
     7     4    30    2
     8     5    33    1
     9     5    75    1
    10     6     7    1
    11     6    10    1
    12     6    11    1
    13     6    18    1
    14     7     8    1
    15     7    13    1
    16     7    34    1
    17     8     9    1
    18     8    16    1
    19     8    35    1
    20     9    12    1
    21     9    14    1
    22     9    36    1
    23    10    15    1
    24    10    17    1
    25    10    37    1
    26    11    14    1
    27    11    38    1
    28    11    39    1
    29    12    19    1
    30    12    20    1
    31    12    22    1
    32    13    15    1
    33    13    40    1
    34    13    41    1
    35    14    42    1
    36    14    43    1
    37    15    44    1
    38    15    45    1
    39    16    21    1
    40    16    46    1
    41    16    47    1
    42    17    25    1
    43    17    27    1
    44    17    48    1
    45    18    49    1
    46    18    50    1
    47    18    51    1
    48    19    21    2
    49    19    23    1
    50    20    24    1
    51    20    52    1
    52    21    53    1
    53    22    54    1
    54    22    55    1
    55    22    56    1
    56    23    26    1
    57    23    57    1
    58    23    58    1
    59    24    26    1
    60    24    59    1
    61    24    60    1
    62    25    28    1
    63    25    61    1
    64    26    62    1
    65    27    63    1
    66    27    64    1
    67    27    65    1
    68    28    29    1
    69    28    66    1
    70    28    67    1
    71    29    31    2
    72    29    32    1
    73    30    31    1
    74    31    33    1
    75    32    70    1
    76    32    71    1
    77    32    72    1
    78    33    73    1
    79    33    74    1
