@<TRIPOS>MOLECULE
IMPHY002914
 71 75 0 0 0
SMALL
GASTEIGER

@<TRIPOS>ATOM
      1 O           6.3301   -0.4825    0.0000 O.3     1  UNL1       -0.3399
      2 O           7.1962    2.0175    0.0000 O.3     1  UNL1       -0.3611
      3 O           4.5981   -0.4825    0.0000 O.3     1  UNL1       -0.3405
      4 O           4.5981    0.5175    0.0000 O.3     1  UNL1       -0.3865
      5 O           4.5981    2.5175    0.0000 O.3     1  UNL1       -0.3865
      6 O           6.3301   -2.4825    0.0000 O.3     1  UNL1       -0.3841
      7 O           4.5981   -3.4825    0.0000 O.3     1  UNL1       -0.3864
      8 O           2.8660   -2.4825    0.0000 O.3     1  UNL1       -0.3865
      9 O           5.4641    4.0175    0.0000 O.3     1  UNL1       -0.3924
     10 O           2.0000   -0.9825    0.0000 O.3     1  UNL1       -0.3924
     11 O           8.9282    2.0175    0.0000 O.3     1  UNL1       -0.5063
     12 O           7.1962   -0.9825    0.0000 O.co2   1  UNL1       -0.8728
     13 O          10.7042   -0.9893    0.0000 O.2     1  UNL1       -0.4545
     14 O           8.0404   -2.5139    0.0000 O.2     1  UNL1       -0.2871
     15 O          14.1840   -4.0175    0.0000 O.3     1  UNL1       -0.5068
     16 C           6.3301    0.5175    0.0000 C.3     1  UNL1        0.1203
     17 C           5.4641    1.0175    0.0000 C.3     1  UNL1        0.1124
     18 C           7.1962    1.0175    0.0000 C.3     1  UNL1        0.1157
     19 C           5.4641    2.0175    0.0000 C.3     1  UNL1        0.1118
     20 C           6.3301    2.5175    0.0000 C.3     1  UNL1        0.1108
     21 C           5.4641   -0.9825    0.0000 C.3     1  UNL1        0.1884
     22 C           5.4641   -1.9825    0.0000 C.3     1  UNL1        0.1341
     23 C           4.5981   -2.4825    0.0000 C.3     1  UNL1        0.1141
     24 C           3.7320   -1.9825    0.0000 C.3     1  UNL1        0.1119
     25 C           3.7320   -0.9825    0.0000 C.3     1  UNL1        0.1130
     26 C           8.0622    0.5175    0.0000 C.ar    1  UNL1        0.0183
     27 C           6.3301    3.5175    0.0000 C.3     1  UNL1        0.0729
     28 C           2.8660   -0.4825    0.0000 C.3     1  UNL1        0.0730
     29 C           8.0622   -0.4825    0.0000 C.ar    1  UNL1       -0.0845
     30 C           8.9282    1.0175    0.0000 C.ar    1  UNL1        0.1255
     31 C           8.9282   -0.9825    0.0000 C.ar    1  UNL1        0.0569
     32 C           9.7942    0.5175    0.0000 C.ar    1  UNL1        0.0232
     33 C           9.7942   -0.4825    0.0000 C.ar    1  UNL1        0.1421
     34 C           8.9121   -2.0240    0.0000 C.ar    1  UNL1        0.1925
     35 C           9.8102   -2.5517    0.0000 C.ar    1  UNL1        0.0287
     36 C          10.7123   -2.0309    0.0000 C.ar    1  UNL1        0.1392
     37 C          11.5802   -2.5276    0.0000 C.ar    1  UNL1        0.0176
     38 C          11.5841   -3.5276    0.0000 C.ar    1  UNL1       -0.0476
     39 C          12.4443   -2.0242    0.0000 C.ar    1  UNL1       -0.0476
     40 C          12.4520   -4.0242    0.0000 C.ar    1  UNL1       -0.0195
     41 C          13.3122   -2.5209    0.0000 C.ar    1  UNL1       -0.0195
     42 C          13.3161   -3.5209    0.0000 C.ar    1  UNL1        0.1169
     43 H           6.8671    0.2075    0.0000 H       1  UNL1        0.0653
     44 H           4.9272    1.3275    0.0000 H       1  UNL1        0.0647
     45 H           7.9323    1.4425    0.0000 H       1  UNL1        0.0674
     46 H           5.4641    2.6375    0.0000 H       1  UNL1        0.0647
     47 H           6.8671    2.8275    0.0000 H       1  UNL1        0.0646
     48 H           5.4641   -0.3625    0.0000 H       1  UNL1        0.0938
     49 H           5.4641   -2.6025    0.0000 H       1  UNL1        0.0671
     50 H           4.0611   -2.7925    0.0000 H       1  UNL1        0.0648
     51 H           3.1951   -1.6725    0.0000 H       1  UNL1        0.0647
     52 H           3.7320   -0.3625    0.0000 H       1  UNL1        0.0647
     53 H           6.9407    3.4099    0.0000 H       1  UNL1        0.0584
     54 H           6.5422    4.1002    0.0000 H       1  UNL1        0.0584
     55 H           3.2646   -0.0075    0.0000 H       1  UNL1        0.0584
     56 H           2.4675   -0.0075    0.0000 H       1  UNL1        0.0584
     57 H           4.0611    0.8275    0.0000 H       1  UNL1        0.2100
     58 H           4.0611    2.2075    0.0000 H       1  UNL1        0.2100
     59 H           6.8671   -2.1725    0.0000 H       1  UNL1        0.2101
     60 H           5.1350   -3.7925    0.0000 H       1  UNL1        0.2100
     61 H           2.8660   -3.1025    0.0000 H       1  UNL1        0.2100
     62 H          10.3312    0.8275    0.0000 H       1  UNL1        0.0691
     63 H           5.4641    4.6375    0.0000 H       1  UNL1        0.2095
     64 H           2.0000   -1.6025    0.0000 H       1  UNL1        0.2095
     65 H           8.3913    2.3275    0.0000 H       1  UNL1        0.2921
     66 H           9.8078   -3.1717    0.0000 H       1  UNL1        0.0693
     67 H          11.0483   -3.8396    0.0000 H       1  UNL1        0.0626
     68 H          12.4419   -1.4042    0.0000 H       1  UNL1        0.0626
     69 H          12.4544   -4.6442    0.0000 H       1  UNL1        0.0654
     70 H          13.8480   -2.2088    0.0000 H       1  UNL1        0.0654
     71 H          14.1864   -4.6375    0.0000 H       1  UNL1        0.2921
@<TRIPOS>UNITY_ATOM_ATTR
12 1
charge -1
@<TRIPOS>BOND
     1    16     1    1
     2    21     1    1
     3     2    18    1
     4     2    20    1
     5     3    21    1
     6     3    25    1
     7    17     4    1
     8     4    57    1
     9    19     5    1
    10     5    58    1
    11    22     6    1
    12     6    59    1
    13    23     7    1
    14     7    60    1
    15    24     8    1
    16     8    61    1
    17     9    27    1
    18     9    63    1
    19    10    28    1
    20    10    64    1
    21    11    30    1
    22    11    65    1
    23    12    29    1
    24    13    33   ar
    25    13    36   ar
    26    14    34    2
    27    15    42    1
    28    15    71    1
    29    16    17    1
    30    16    18    1
    31    16    43    1
    32    17    19    1
    33    17    44    1
    34    18    26    1
    35    18    45    1
    36    19    20    1
    37    19    46    1
    38    20    27    1
    39    20    47    1
    40    21    22    1
    41    21    48    1
    42    22    23    1
    43    22    49    1
    44    23    24    1
    45    23    50    1
    46    24    25    1
    47    24    51    1
    48    25    28    1
    49    25    52    1
    50    26    29   ar
    51    26    30   ar
    52    27    53    1
    53    27    54    1
    54    28    55    1
    55    28    56    1
    56    29    31   ar
    57    30    32   ar
    58    31    33   ar
    59    31    34   ar
    60    32    33   ar
    61    32    62    1
    62    34    35   ar
    63    35    36   ar
    64    35    66    1
    65    36    37    1
    66    37    38   ar
    67    37    39   ar
    68    38    40   ar
    69    38    67    1
    70    39    41   ar
    71    39    68    1
    72    40    42   ar
    73    40    69    1
    74    41    42   ar
    75    41    70    1
