@<TRIPOS>MOLECULE
IMPHY014887
 88 91 0 0 0
SMALL
GASTEIGER

@<TRIPOS>ATOM
      1 O          10.4586   -1.2518    0.0000 O.3     1  UNL1       -0.3914
      2 O           5.3307   -0.2518    0.0000 O.2     1  UNL1       -0.2968
      3 O          10.1362    0.1928    0.0000 O.3     1  UNL1       -0.3806
      4 O           2.5519   -1.7126    0.0000 O.3     1  UNL1       -0.3892
      5 O           2.5357   -3.8042    0.0000 O.3     1  UNL1       -0.3884
      6 O           8.8285    2.1982    0.0000 O.2     1  UNL1       -0.2896
      7 O          12.7425    3.0231    0.0000 O.3     1  UNL1       -0.4546
      8 O          12.3854    4.7179    0.0000 O.2     1  UNL1       -0.2511
      9 C           7.9288   -1.7518    0.0000 C.3     1  UNL1       -0.0195
     10 C           7.9288   -0.7518    0.0000 C.3     1  UNL1       -0.0114
     11 C           7.0628   -2.2518    0.0000 C.3     1  UNL1       -0.0190
     12 C           6.1968   -1.7518    0.0000 C.3     1  UNL1        0.0364
     13 C           8.8750   -0.4471    0.0000 C.3     1  UNL1        0.0271
     14 C           8.8750   -2.0566    0.0000 C.3     1  UNL1       -0.0202
     15 C           7.0628   -0.2518    0.0000 C.3     1  UNL1        0.0127
     16 C           9.4586   -1.2518    0.0000 C.3     1  UNL1        0.0621
     17 C           5.2868   -2.2587    0.0000 C.3     1  UNL1       -0.0045
     18 C           6.1968   -0.7518    0.0000 C.2     1  UNL1        0.1406
     19 C           7.0789   -3.2933    0.0000 C.3     1  UNL1       -0.0302
     20 C           7.9288   -2.7518    0.0000 C.3     1  UNL1       -0.0587
     21 C           7.9288    0.2482    0.0000 C.3     1  UNL1       -0.0582
     22 C           9.1857    0.5034    0.0000 C.3     1  UNL1        0.1304
     23 C           5.2787   -3.3003    0.0000 C.2     1  UNL1       -0.0612
     24 C           5.3307   -1.2518    0.0000 C.3     1  UNL1       -0.0520
     25 C           4.3599   -1.6946    0.0000 C.3     1  UNL1       -0.0170
     26 C           6.1808   -3.8211    0.0000 C.2     1  UNL1       -0.0836
     27 C           4.3433   -3.8500    0.0000 C.3     1  UNL1        0.0147
     28 C           3.4120   -2.2225    0.0000 C.3     1  UNL1        0.0824
     29 C           3.4037   -3.3075    0.0000 C.3     1  UNL1        0.0898
     30 C           8.2352    0.8141    0.0000 C.3     1  UNL1       -0.0284
     31 C           9.4964    1.4540    0.0000 C.2     1  UNL1        0.1873
     32 C           3.8467   -4.7179    0.0000 C.3     1  UNL1       -0.0536
     33 C           4.8466   -4.7141    0.0000 C.3     1  UNL1       -0.0536
     34 C          10.4749    1.6602    0.0000 C.2     1  UNL1       -0.0165
     35 C          10.7855    2.6107    0.0000 C.2     1  UNL1       -0.0381
     36 C          11.7640    2.8169    0.0000 C.3     1  UNL1        0.1264
     37 C          11.5578    3.7954    0.0000 C.3     1  UNL1       -0.0214
     38 C          11.9703    1.8384    0.0000 C.3     1  UNL1       -0.0214
     39 C          13.0532    3.9736    0.0000 C.2     1  UNL1        0.3047
     40 C          14.0317    4.1799    0.0000 C.3     1  UNL1        0.0333
     41 H           7.8022   -2.6711    0.0000 H       1  UNL1        0.0319
     42 H           9.4875   -0.3509    0.0000 H       1  UNL1        0.0363
     43 H           8.6240   -2.6235    0.0000 H       1  UNL1        0.0296
     44 H           9.4124   -2.3658    0.0000 H       1  UNL1        0.0296
     45 H           7.4613    0.2231    0.0000 H       1  UNL1        0.0347
     46 H           6.6643    0.2231    0.0000 H       1  UNL1        0.0347
     47 H           9.7404   -1.8041    0.0000 H       1  UNL1        0.0597
     48 H           6.0179   -2.6922    0.0000 H       1  UNL1        0.0356
     49 H           7.2969   -3.8737    0.0000 H       1  UNL1        0.0311
     50 H           7.6880   -3.1778    0.0000 H       1  UNL1        0.0311
     51 H           7.3088   -2.7518    0.0000 H       1  UNL1        0.0235
     52 H           7.9288   -3.3718    0.0000 H       1  UNL1        0.0235
     53 H           8.5488   -2.7518    0.0000 H       1  UNL1        0.0235
     54 H           8.5488    0.2482    0.0000 H       1  UNL1        0.0235
     55 H           7.9288    0.8682    0.0000 H       1  UNL1        0.0235
     56 H           7.3088    0.2482    0.0000 H       1  UNL1        0.0235
     57 H           5.6407   -0.7149    0.0000 H       1  UNL1        0.0239
     58 H           4.7938   -0.9418    0.0000 H       1  UNL1        0.0239
     59 H           5.0207   -1.7888    0.0000 H       1  UNL1        0.0239
     60 H           4.7681   -1.2279    0.0000 H       1  UNL1        0.0297
     61 H           3.9700   -1.2126    0.0000 H       1  UNL1        0.0297
     62 H           6.1832   -4.4411    0.0000 H       1  UNL1        0.0572
     63 H           2.8722   -2.5274    0.0000 H       1  UNL1        0.0619
     64 H           3.4025   -3.9275    0.0000 H       1  UNL1        0.0628
     65 H          10.7687   -1.7888    0.0000 H       1  UNL1        0.2098
     66 H           8.4278    1.4034    0.0000 H       1  UNL1        0.0262
     67 H           7.6459    1.0067    0.0000 H       1  UNL1        0.0262
     68 H           8.0426    0.2248    0.0000 H       1  UNL1        0.0262
     69 H           3.3085   -4.4100    0.0000 H       1  UNL1        0.0239
     70 H           3.5387   -5.2561    0.0000 H       1  UNL1        0.0239
     71 H           4.3848   -5.0259    0.0000 H       1  UNL1        0.0239
     72 H           4.3109   -5.0262    0.0000 H       1  UNL1        0.0239
     73 H           5.1587   -5.2498    0.0000 H       1  UNL1        0.0239
     74 H           5.3824   -4.4020    0.0000 H       1  UNL1        0.0239
     75 H          10.5977    0.6068    0.0000 H       1  UNL1        0.2108
     76 H           2.5590   -1.0926    0.0000 H       1  UNL1        0.2099
     77 H           2.0000   -3.4921    0.0000 H       1  UNL1        0.2099
     78 H          10.8889    1.1987    0.0000 H       1  UNL1        0.0651
     79 H          10.3715    3.0722    0.0000 H       1  UNL1        0.0612
     80 H          12.1645    3.9233    0.0000 H       1  UNL1        0.0271
     81 H          11.4300    4.4021    0.0000 H       1  UNL1        0.0271
     82 H          10.9511    3.6676    0.0000 H       1  UNL1        0.0271
     83 H          11.3636    1.7105    0.0000 H       1  UNL1        0.0271
     84 H          12.0981    1.2317    0.0000 H       1  UNL1        0.0271
     85 H          12.5769    1.9662    0.0000 H       1  UNL1        0.0271
     86 H          14.1596    3.5732    0.0000 H       1  UNL1        0.0342
     87 H          14.6384    4.3077    0.0000 H       1  UNL1        0.0342
     88 H          13.9039    4.7865    0.0000 H       1  UNL1        0.0342
@<TRIPOS>BOND
     1     1    16    1
     2     1    65    1
     3     2    18    2
     4     3    22    1
     5     3    75    1
     6     4    28    1
     7     4    76    1
     8     5    29    1
     9     5    77    1
    10     6    31    2
    11     7    36    1
    12     7    39    1
    13     8    39    2
    14     9    10    1
    15     9    11    1
    16     9    14    1
    17     9    20    1
    18    10    13    1
    19    10    15    1
    20    10    21    1
    21    11    12    1
    22    11    19    1
    23    11    41    1
    24    12    17    1
    25    12    18    1
    26    12    24    1
    27    13    16    1
    28    13    22    1
    29    13    42    1
    30    14    16    1
    31    14    43    1
    32    14    44    1
    33    15    18    1
    34    15    45    1
    35    15    46    1
    36    16    47    1
    37    17    23    1
    38    17    25    1
    39    17    48    1
    40    19    26    1
    41    19    49    1
    42    19    50    1
    43    20    51    1
    44    20    52    1
    45    20    53    1
    46    21    54    1
    47    21    55    1
    48    21    56    1
    49    22    30    1
    50    22    31    1
    51    23    26    2
    52    23    27    1
    53    24    57    1
    54    24    58    1
    55    24    59    1
    56    25    28    1
    57    25    60    1
    58    25    61    1
    59    26    62    1
    60    27    29    1
    61    27    32    1
    62    27    33    1
    63    28    29    1
    64    28    63    1
    65    29    64    1
    66    30    66    1
    67    30    67    1
    68    30    68    1
    69    31    34    1
    70    32    69    1
    71    32    70    1
    72    32    71    1
    73    33    72    1
    74    33    73    1
    75    33    74    1
    76    34    35    2
    77    34    78    1
    78    35    36    1
    79    35    79    1
    80    36    37    1
    81    36    38    1
    82    37    80    1
    83    37    81    1
    84    37    82    1
    85    38    83    1
    86    38    84    1
    87    38    85    1
    88    39    40    1
    89    40    86    1
    90    40    87    1
    91    40    88    1
