@<TRIPOS>MOLECULE
IMPHY010131
 38 40 0 0 0
SMALL
GASTEIGER

@<TRIPOS>ATOM
      1 O           3.7817   -2.0346    0.0000 O.3     1  UNL1       -0.5056
      2 O           9.0602    1.0241    0.0000 O.3     1  UNL1       -0.4885
      3 O           7.2785    2.0346    0.0000 O.3     1  UNL1       -0.5027
      4 O           9.0602   -1.0241    0.0000 O.3     1  UNL1       -0.4913
      5 O           5.5301   -2.0000    0.0000 O.2     1  UNL1       -0.2865
      6 O           5.5301    2.0000    0.0000 O.2     1  UNL1       -0.2865
      7 O           2.0000    1.0241    0.0000 O.3     1  UNL1       -0.5064
      8 C           4.6641   -0.5000    0.0000 C.ar    1  UNL1        0.0749
      9 C           6.3961    0.5000    0.0000 C.ar    1  UNL1        0.0783
     10 C           4.6641    0.5000    0.0000 C.ar    1  UNL1        0.0402
     11 C           6.3961   -0.5000    0.0000 C.ar    1  UNL1        0.0404
     12 C           5.5301   -1.0000    0.0000 C.2     1  UNL1        0.1982
     13 C           5.5301    1.0000    0.0000 C.2     1  UNL1        0.1984
     14 C           3.7702   -1.0347    0.0000 C.ar    1  UNL1        0.1347
     15 C           7.2901    1.0347    0.0000 C.ar    1  UNL1        0.1739
     16 C           2.8641   -0.5208    0.0000 C.ar    1  UNL1        0.0330
     17 C           3.7702    1.0347    0.0000 C.ar    1  UNL1       -0.0082
     18 C           7.2901   -1.0347    0.0000 C.ar    1  UNL1       -0.0045
     19 C           2.8641    0.5208    0.0000 C.ar    1  UNL1        0.1239
     20 C           8.1962    0.5208    0.0000 C.ar    1  UNL1        0.2040
     21 C           8.1962   -0.5208    0.0000 C.ar    1  UNL1        0.1659
     22 C           2.0000   -1.0241    0.0000 C.3     1  UNL1       -0.0327
     23 C           9.9282    0.5275    0.0000 C.3     1  UNL1        0.0791
     24 C           9.0564   -2.0241    0.0000 C.3     1  UNL1        0.0790
     25 H           3.7773    1.6546    0.0000 H       1  UNL1        0.0661
     26 H           7.2829   -1.6546    0.0000 H       1  UNL1        0.0663
     27 H           1.6879   -0.4884    0.0000 H       1  UNL1        0.0280
     28 H           1.4643   -1.3362    0.0000 H       1  UNL1        0.0280
     29 H           2.3121   -1.5599    0.0000 H       1  UNL1        0.0280
     30 H           3.2484   -2.3508    0.0000 H       1  UNL1        0.2922
     31 H           7.8118    2.3508    0.0000 H       1  UNL1        0.2923
     32 H           2.0024    1.6442    0.0000 H       1  UNL1        0.2921
     33 H           9.6203   -0.0106    0.0000 H       1  UNL1        0.0660
     34 H          10.4663    0.2196    0.0000 H       1  UNL1        0.0660
     35 H          10.2361    1.0656    0.0000 H       1  UNL1        0.0660
     36 H           8.4364   -2.0218    0.0000 H       1  UNL1        0.0660
     37 H           9.0540   -2.6441    0.0000 H       1  UNL1        0.0660
     38 H           9.6764   -2.0265    0.0000 H       1  UNL1        0.0660
@<TRIPOS>BOND
     1     1    14    1
     2     1    30    1
     3     2    20    1
     4     2    23    1
     5     3    15    1
     6     3    31    1
     7     4    21    1
     8     4    24    1
     9     5    12    2
    10     6    13    2
    11     7    19    1
    12     7    32    1
    13     8    10   ar
    14     8    12    1
    15     8    14   ar
    16     9    11   ar
    17     9    13    1
    18     9    15   ar
    19    10    13    1
    20    10    17   ar
    21    11    12    1
    22    11    18   ar
    23    14    16   ar
    24    15    20   ar
    25    16    19   ar
    26    16    22    1
    27    17    19   ar
    28    17    25    1
    29    18    21   ar
    30    18    26    1
    31    20    21   ar
    32    22    27    1
    33    22    28    1
    34    22    29    1
    35    23    33    1
    36    23    34    1
    37    23    35    1
    38    24    36    1
    39    24    37    1
    40    24    38    1
