@<TRIPOS>MOLECULE
IMPHY000148
 55 56 0 0 0
SMALL
GASTEIGER

@<TRIPOS>ATOM
      1 O           2.3100    1.0468    0.0000 O.3     1  UNL1       -0.3886
      2 C           5.0420    1.0468    0.0000 C.3     1  UNL1       -0.0233
      3 C           5.0420    2.0468    0.0000 C.3     1  UNL1       -0.0300
      4 C           4.1760    0.5468    0.0000 C.3     1  UNL1       -0.0064
      5 C           5.9360    2.5815    0.0000 C.3     1  UNL1       -0.0315
      6 C           3.3100    1.0468    0.0000 C.3     1  UNL1        0.0666
      7 C           5.9360    0.5121    0.0000 C.3     1  UNL1       -0.0470
      8 C           4.1760    2.5468    0.0000 C.3     1  UNL1       -0.0466
      9 C           3.3100    2.0468    0.0000 C.3     1  UNL1       -0.0237
     10 C           6.8421    2.0676    0.0000 C.3     1  UNL1       -0.0476
     11 C           6.8421    1.0260    0.0000 C.3     1  UNL1       -0.0521
     12 C           5.0420    0.0468    0.0000 C.3     1  UNL1       -0.0589
     13 C           4.1760   -0.4532    0.0000 C.3     1  UNL1       -0.0431
     14 C           6.4260    3.4532    0.0000 C.3     1  UNL1       -0.0595
     15 C           5.4260    3.4416    0.0000 C.3     1  UNL1       -0.0595
     16 C           2.8100    0.1808    0.0000 C.3     1  UNL1       -0.0358
     17 C           3.3100   -0.9532    0.0000 C.3     1  UNL1       -0.0279
     18 C           3.3100   -1.9532    0.0000 C.2     1  UNL1       -0.0550
     19 C           2.4440   -2.4532    0.0000 C.2     1  UNL1       -0.0662
     20 C           4.1760   -2.4532    0.0000 C.2     1  UNL1       -0.0955
     21 C           2.4440   -3.4532    0.0000 C.2     1  UNL1       -0.0985
     22 H           5.0355    2.8968    0.0000 H       1  UNL1        0.0311
     23 H           3.6391    0.2368    0.0000 H       1  UNL1        0.0334
     24 H           5.5314    0.0423    0.0000 H       1  UNL1        0.0271
     25 H           6.3296    0.0331    0.0000 H       1  UNL1        0.0271
     26 H           4.5746    3.0217    0.0000 H       1  UNL1        0.0269
     27 H           3.7775    3.0217    0.0000 H       1  UNL1        0.0269
     28 H           3.0980    2.6294    0.0000 H       1  UNL1        0.0293
     29 H           2.6994    1.9391    0.0000 H       1  UNL1        0.0293
     30 H           7.4529    1.9615    0.0000 H       1  UNL1        0.0271
     31 H           7.0511    2.6513    0.0000 H       1  UNL1        0.0271
     32 H           7.0511    0.4423    0.0000 H       1  UNL1        0.0266
     33 H           7.4529    1.1321    0.0000 H       1  UNL1        0.0266
     34 H           4.4220    0.0468    0.0000 H       1  UNL1        0.0235
     35 H           5.0420   -0.5732    0.0000 H       1  UNL1        0.0235
     36 H           5.6620    0.0468    0.0000 H       1  UNL1        0.0235
     37 H           4.3881   -1.0358    0.0000 H       1  UNL1        0.0272
     38 H           4.7866   -0.3455    0.0000 H       1  UNL1        0.0272
     39 H           6.9664    3.1494    0.0000 H       1  UNL1        0.0235
     40 H           6.7297    3.9937    0.0000 H       1  UNL1        0.0235
     41 H           5.8855    3.7570    0.0000 H       1  UNL1        0.0235
     42 H           5.9593    3.7578    0.0000 H       1  UNL1        0.0235
     43 H           5.1098    3.9750    0.0000 H       1  UNL1        0.0235
     44 H           4.8927    3.1254    0.0000 H       1  UNL1        0.0235
     45 H           2.2731    0.4908    0.0000 H       1  UNL1        0.0257
     46 H           2.5000   -0.3562    0.0000 H       1  UNL1        0.0257
     47 H           3.3469   -0.1292    0.0000 H       1  UNL1        0.0257
     48 H           3.0980   -0.3706    0.0000 H       1  UNL1        0.0313
     49 H           2.6994   -1.0609    0.0000 H       1  UNL1        0.0313
     50 H           2.0000    1.5837    0.0000 H       1  UNL1        0.2102
     51 H           1.9070   -2.1432    0.0000 H       1  UNL1        0.0614
     52 H           4.1760   -3.0732    0.0000 H       1  UNL1        0.0537
     53 H           4.7130   -2.1432    0.0000 H       1  UNL1        0.0537
     54 H           1.9070   -3.7632    0.0000 H       1  UNL1        0.0535
     55 H           2.9809   -3.7632    0.0000 H       1  UNL1        0.0535
@<TRIPOS>BOND
     1     6     1    1
     2     1    50    1
     3     2     3    1
     4     2     4    1
     5     2     7    1
     6     2    12    1
     7     3     5    1
     8     3     8    1
     9     3    22    1
    10     4     6    1
    11     4    13    1
    12     4    23    1
    13     5    10    1
    14     5    14    1
    15     5    15    1
    16     6     9    1
    17     6    16    1
    18     7    11    1
    19     7    24    1
    20     7    25    1
    21     8     9    1
    22     8    26    1
    23     8    27    1
    24     9    28    1
    25     9    29    1
    26    10    11    1
    27    10    30    1
    28    10    31    1
    29    11    32    1
    30    11    33    1
    31    12    34    1
    32    12    35    1
    33    12    36    1
    34    13    17    1
    35    13    37    1
    36    13    38    1
    37    14    39    1
    38    14    40    1
    39    14    41    1
    40    15    42    1
    41    15    43    1
    42    15    44    1
    43    16    45    1
    44    16    46    1
    45    16    47    1
    46    17    18    1
    47    17    48    1
    48    17    49    1
    49    18    19    1
    50    18    20    2
    51    19    21    2
    52    19    51    1
    53    20    52    1
    54    20    53    1
    55    21    54    1
    56    21    55    1
