@<TRIPOS>MOLECULE
IMPHY008743
 32 34 0 0 0
SMALL
GASTEIGER

@<TRIPOS>ATOM
      1 O           5.5301   -0.0950    0.0000 O.2     1  UNL1       -0.4508
      2 O           7.2622    1.9050    0.0000 O.3     1  UNL1       -0.5007
      3 O           5.5301    2.9050    0.0000 O.2     1  UNL1       -0.2831
      4 O           2.0000    1.9292    0.0000 O.3     1  UNL1       -0.5033
      5 O           2.0000   -0.1192    0.0000 O.3     1  UNL1       -0.5032
      6 O           8.1282   -2.5950    0.0000 O.3     1  UNL1       -0.5033
      7 O           9.8602   -1.5950    0.0000 O.3     1  UNL1       -0.5033
      8 C           4.6641    1.4050    0.0000 C.ar    1  UNL1        0.0714
      9 C           4.6641    0.4050    0.0000 C.ar    1  UNL1        0.1432
     10 C           6.3961    0.4050    0.0000 C.ar    1  UNL1        0.1807
     11 C           7.2622   -0.0950    0.0000 C.ar    1  UNL1        0.0247
     12 C           6.3961    1.4050    0.0000 C.ar    1  UNL1        0.2081
     13 C           5.5301    1.9050    0.0000 C.ar    1  UNL1        0.2345
     14 C           3.7702    1.9397    0.0000 C.ar    1  UNL1       -0.0021
     15 C           3.7702   -0.1297    0.0000 C.ar    1  UNL1        0.0265
     16 C           2.8641    1.4258    0.0000 C.ar    1  UNL1        0.1591
     17 C           2.8641    0.3842    0.0000 C.ar    1  UNL1        0.1618
     18 C           7.2622   -1.0950    0.0000 C.ar    1  UNL1       -0.0057
     19 C           8.1282    0.4050    0.0000 C.ar    1  UNL1       -0.0473
     20 C           8.1282   -1.5950    0.0000 C.ar    1  UNL1        0.1589
     21 C           8.9942   -0.0950    0.0000 C.ar    1  UNL1       -0.0159
     22 C           8.9942   -1.0950    0.0000 C.ar    1  UNL1        0.1583
     23 H           3.7773    2.5596    0.0000 H       1  UNL1        0.0663
     24 H           3.7773   -0.7496    0.0000 H       1  UNL1        0.0692
     25 H           6.7252   -1.4050    0.0000 H       1  UNL1        0.0662
     26 H           8.1282    1.0250    0.0000 H       1  UNL1        0.0626
     27 H           9.5312    0.2150    0.0000 H       1  UNL1        0.0655
     28 H           7.2622    2.5250    0.0000 H       1  UNL1        0.2924
     29 H           2.0024    2.5492    0.0000 H       1  UNL1        0.2923
     30 H           2.0024   -0.7391    0.0000 H       1  UNL1        0.2923
     31 H           8.6651   -2.9050    0.0000 H       1  UNL1        0.2923
     32 H          10.3972   -1.2850    0.0000 H       1  UNL1        0.2923
@<TRIPOS>BOND
     1     1     9   ar
     2     1    10   ar
     3     2    12    1
     4     2    28    1
     5     3    13    2
     6     4    16    1
     7     4    29    1
     8     5    17    1
     9     5    30    1
    10     6    20    1
    11     6    31    1
    12     7    22    1
    13     7    32    1
    14     8     9   ar
    15     8    13   ar
    16     8    14   ar
    17     9    15   ar
    18    10    11    1
    19    10    12   ar
    20    11    18   ar
    21    11    19   ar
    22    12    13   ar
    23    14    16   ar
    24    14    23    1
    25    15    17   ar
    26    15    24    1
    27    16    17   ar
    28    18    20   ar
    29    18    25    1
    30    19    21   ar
    31    19    26    1
    32    20    22   ar
    33    21    22   ar
    34    21    27    1
