@<TRIPOS>MOLECULE
IMPHY007659
 154 163 0 0 0
SMALL
GASTEIGER

@<TRIPOS>ATOM
      1 O          14.3523    4.0403    0.0000 O.3     1  UNL1       -0.3448
      2 O          12.5799    4.9351    0.0000 O.3     1  UNL1       -0.3480
      3 O          12.9292   -4.2038    0.0000 O.3     1  UNL1       -0.3451
      4 O          11.1972   -4.2038    0.0000 O.3     1  UNL1       -0.3405
      5 O          12.9292   -6.2038    0.0000 O.3     1  UNL1       -0.3378
      6 O          11.1972   -7.2038    0.0000 O.3     1  UNL1       -0.3864
      7 O           9.4651   -6.2038    0.0000 O.3     1  UNL1       -0.3401
      8 O          13.7953   -4.7038    0.0000 O.3     1  UNL1       -0.3431
      9 O           9.4651   -3.2038    0.0000 O.3     1  UNL1       -0.3924
     10 O           8.5991   -4.7038    0.0000 O.3     1  UNL1       -0.3405
     11 O          14.6613   -7.2038    0.0000 O.3     1  UNL1       -0.3841
     12 O          16.3933   -6.2038    0.0000 O.3     1  UNL1       -0.3864
     13 O           7.7331   -7.2038    0.0000 O.3     1  UNL1       -0.3841
     14 O          16.3933   -4.2038    0.0000 O.3     1  UNL1       -0.3866
     15 O           6.0010   -6.2038    0.0000 O.3     1  UNL1       -0.3401
     16 O           6.0010   -4.2038    0.0000 O.3     1  UNL1       -0.3865
     17 O           6.8671   -2.7038    0.0000 O.3     1  UNL1       -0.3924
     18 O           5.1350   -4.7038    0.0000 O.3     1  UNL1       -0.3431
     19 O           4.2690   -7.2038    0.0000 O.3     1  UNL1       -0.3841
     20 O           2.5369   -6.2038    0.0000 O.3     1  UNL1       -0.3864
     21 O           2.5369   -4.2038    0.0000 O.3     1  UNL1       -0.3866
     22 C          12.9585    1.9931    0.0000 C.3     1  UNL1       -0.0233
     23 C          13.8264    1.4965    0.0000 C.3     1  UNL1       -0.0295
     24 C          13.1640    2.9657    0.0000 C.3     1  UNL1       -0.0015
     25 C          13.8303    0.4965    0.0000 C.3     1  UNL1       -0.0306
     26 C          14.1523    3.0726    0.0000 C.3     1  UNL1        0.0660
     27 C          12.9662   -0.0069    0.0000 C.3     1  UNL1       -0.0285
     28 C          14.5609    2.1664    0.0000 C.3     1  UNL1       -0.0226
     29 C          12.0944    1.4898    0.0000 C.3     1  UNL1       -0.0467
     30 C          12.7617    3.8683    0.0000 C.3     1  UNL1        0.0160
     31 C          12.0983    0.4898    0.0000 C.3     1  UNL1       -0.0486
     32 C          12.9542   -1.0484    0.0000 C.3     1  UNL1       -0.0078
     33 C          13.4946    4.5311    0.0000 C.3     1  UNL1        0.1732
     34 C          12.0906    2.4898    0.0000 C.3     1  UNL1       -0.0590
     35 C          14.7422   -0.0069    0.0000 C.3     1  UNL1       -0.0311
     36 C          13.8542   -1.5727    0.0000 C.2     1  UNL1       -0.0648
     37 C          12.0043   -1.5727    0.0000 C.3     1  UNL1       -0.0413
     38 C          11.7833    4.0750    0.0000 C.3     1  UNL1       -0.0572
     39 C          14.3019    5.1213    0.0000 C.3     1  UNL1        0.0020
     40 C          14.7543   -1.0484    0.0000 C.2     1  UNL1       -0.0839
     41 C          12.0901   -0.5451    0.0000 C.3     1  UNL1       -0.0556
     42 C          13.8668   -2.6576    0.0000 C.3     1  UNL1       -0.0047
     43 C          11.9917   -2.6576    0.0000 C.3     1  UNL1       -0.0254
     44 C          12.9292   -3.2038    0.0000 C.3     1  UNL1        0.0655
     45 C          14.1944    6.1155    0.0000 C.3     1  UNL1       -0.0435
     46 C          13.2796    6.5195    0.0000 C.3     1  UNL1       -0.0201
     47 C          12.4724    5.9293    0.0000 C.3     1  UNL1        0.0535
     48 C          13.1721    7.5138    0.0000 C.3     1  UNL1       -0.0603
     49 C          12.0632   -4.7038    0.0000 C.3     1  UNL1        0.1886
     50 C          12.0632   -5.7038    0.0000 C.3     1  UNL1        0.1406
     51 C          11.1972   -6.2038    0.0000 C.3     1  UNL1        0.1148
     52 C          10.3312   -4.7038    0.0000 C.3     1  UNL1        0.1134
     53 C          10.3312   -5.7038    0.0000 C.3     1  UNL1        0.1184
     54 C           9.4651   -4.2038    0.0000 C.3     1  UNL1        0.0730
     55 C          13.7953   -5.7038    0.0000 C.3     1  UNL1        0.1884
     56 C          14.6613   -6.2038    0.0000 C.3     1  UNL1        0.1341
     57 C           8.5991   -5.7038    0.0000 C.3     1  UNL1        0.1884
     58 C          15.5273   -5.7038    0.0000 C.3     1  UNL1        0.1140
     59 C          14.6613   -4.2038    0.0000 C.3     1  UNL1        0.0873
     60 C           7.7331   -6.2038    0.0000 C.3     1  UNL1        0.1345
     61 C          15.5273   -4.7038    0.0000 C.3     1  UNL1        0.1095
     62 C           6.8671   -5.7038    0.0000 C.3     1  UNL1        0.1206
     63 C           7.7331   -4.2038    0.0000 C.3     1  UNL1        0.1130
     64 C           6.8671   -4.7038    0.0000 C.3     1  UNL1        0.1123
     65 C          14.6613   -3.2038    0.0000 C.3     1  UNL1       -0.0361
     66 C           7.7331   -3.2038    0.0000 C.3     1  UNL1        0.0730
     67 C           5.1350   -5.7038    0.0000 C.3     1  UNL1        0.1883
     68 C           4.2690   -6.2038    0.0000 C.3     1  UNL1        0.1341
     69 C           3.4030   -5.7038    0.0000 C.3     1  UNL1        0.1140
     70 C           4.2690   -4.2038    0.0000 C.3     1  UNL1        0.0873
     71 C           3.4030   -4.7038    0.0000 C.3     1  UNL1        0.1095
     72 C           4.2690   -3.2038    0.0000 C.3     1  UNL1       -0.0361
     73 H          14.6047    1.1548    0.0000 H       1  UNL1        0.0310
     74 H          12.3187    2.8762    0.0000 H       1  UNL1        0.0335
     75 H          14.5615    0.9300    0.0000 H       1  UNL1        0.0310
     76 H          14.9972    3.1658    0.0000 H       1  UNL1        0.0600
     77 H          13.7007   -0.4347    0.0000 H       1  UNL1        0.0312
     78 H          14.9283    1.6670    0.0000 H       1  UNL1        0.0293
     79 H          15.0962    2.4792    0.0000 H       1  UNL1        0.0293
     80 H          11.8801    2.0716    0.0000 H       1  UNL1        0.0271
     81 H          11.4842    1.3798    0.0000 H       1  UNL1        0.0271
     82 H          12.3719    3.3862    0.0000 H       1  UNL1        0.0354
     83 H          11.4873    0.5951    0.0000 H       1  UNL1        0.0268
     84 H          11.8885   -0.0936    0.0000 H       1  UNL1        0.0268
     85 H          12.3985    3.0279    0.0000 H       1  UNL1        0.0235
     86 H          11.5524    2.7977    0.0000 H       1  UNL1        0.0235
     87 H          11.7826    1.9517    0.0000 H       1  UNL1        0.0235
     88 H          15.3543   -0.1059    0.0000 H       1  UNL1        0.0310
     89 H          14.9445    0.5792    0.0000 H       1  UNL1        0.0310
     90 H          11.8020   -0.9866    0.0000 H       1  UNL1        0.0274
     91 H          11.3922   -1.6717    0.0000 H       1  UNL1        0.0274
     92 H          11.9114    4.6816    0.0000 H       1  UNL1        0.0234
     93 H          11.1766    4.2032    0.0000 H       1  UNL1        0.0234
     94 H          11.6551    3.4684    0.0000 H       1  UNL1        0.0234
     95 H          14.5753    4.5649    0.0000 H       1  UNL1        0.0317
     96 H          14.8974    5.2940    0.0000 H       1  UNL1        0.0317
     97 H          15.2936   -1.3543    0.0000 H       1  UNL1        0.0572
     98 H          12.4021   -0.0093    0.0000 H       1  UNL1        0.0238
     99 H          11.5543   -0.2330    0.0000 H       1  UNL1        0.0238
    100 H          11.7780   -1.0808    0.0000 H       1  UNL1        0.0238
    101 H          14.0826   -3.2389    0.0000 H       1  UNL1        0.0335
    102 H          14.4764   -2.5445    0.0000 H       1  UNL1        0.0335
    103 H          11.3821   -2.5445    0.0000 H       1  UNL1        0.0290
    104 H          11.7759   -3.2389    0.0000 H       1  UNL1        0.0290
    105 H          12.3917   -3.5127    0.0000 H       1  UNL1        0.0600
    106 H          14.8130    6.0741    0.0000 H       1  UNL1        0.0270
    107 H          14.3426    6.7176    0.0000 H       1  UNL1        0.0270
    108 H          13.7801    6.8855    0.0000 H       1  UNL1        0.0320
    109 H          12.1989    6.4858    0.0000 H       1  UNL1        0.0563
    110 H          11.8769    5.7567    0.0000 H       1  UNL1        0.0563
    111 H          13.7885    7.5804    0.0000 H       1  UNL1        0.0233
    112 H          13.1055    8.1302    0.0000 H       1  UNL1        0.0233
    113 H          12.5557    7.4471    0.0000 H       1  UNL1        0.0233
    114 H          12.6002   -5.0138    0.0000 H       1  UNL1        0.0938
    115 H          12.0632   -6.3238    0.0000 H       1  UNL1        0.0675
    116 H          10.6603   -6.5138    0.0000 H       1  UNL1        0.0648
    117 H          10.3312   -4.0838    0.0000 H       1  UNL1        0.0647
    118 H           9.7942   -5.3938    0.0000 H       1  UNL1        0.0651
    119 H           8.8546   -4.0961    0.0000 H       1  UNL1        0.0584
    120 H           9.2531   -4.7864    0.0000 H       1  UNL1        0.0584
    121 H          13.7953   -6.3238    0.0000 H       1  UNL1        0.0938
    122 H          10.6603   -7.5138    0.0000 H       1  UNL1        0.2100
    123 H          15.1982   -6.5138    0.0000 H       1  UNL1        0.0671
    124 H           8.5991   -6.3238    0.0000 H       1  UNL1        0.0938
    125 H           8.9282   -2.8938    0.0000 H       1  UNL1        0.2095
    126 H          16.0643   -5.3938    0.0000 H       1  UNL1        0.0648
    127 H          14.1244   -3.8938    0.0000 H       1  UNL1        0.0621
    128 H           7.1962   -6.5138    0.0000 H       1  UNL1        0.0671
    129 H          15.5273   -4.0838    0.0000 H       1  UNL1        0.0646
    130 H           6.3301   -5.3938    0.0000 H       1  UNL1        0.0651
    131 H          15.1982   -7.5138    0.0000 H       1  UNL1        0.2101
    132 H           8.2700   -3.8938    0.0000 H       1  UNL1        0.0647
    133 H           6.8671   -4.0838    0.0000 H       1  UNL1        0.0647
    134 H          15.2813   -3.2038    0.0000 H       1  UNL1        0.0255
    135 H          14.6613   -2.5838    0.0000 H       1  UNL1        0.0255
    136 H          14.0413   -3.2038    0.0000 H       1  UNL1        0.0255
    137 H          16.9303   -5.8938    0.0000 H       1  UNL1        0.2100
    138 H           7.1962   -7.5138    0.0000 H       1  UNL1        0.2101
    139 H          16.9303   -4.5138    0.0000 H       1  UNL1        0.2100
    140 H           8.3437   -3.3114    0.0000 H       1  UNL1        0.0584
    141 H           7.9451   -2.6211    0.0000 H       1  UNL1        0.0584
    142 H           6.0010   -3.5838    0.0000 H       1  UNL1        0.2100
    143 H           5.1350   -6.3238    0.0000 H       1  UNL1        0.0938
    144 H           3.7320   -6.5138    0.0000 H       1  UNL1        0.0671
    145 H           6.8671   -2.0838    0.0000 H       1  UNL1        0.2095
    146 H           2.8660   -5.3938    0.0000 H       1  UNL1        0.0648
    147 H           4.8059   -3.8938    0.0000 H       1  UNL1        0.0621
    148 H           3.4030   -4.0838    0.0000 H       1  UNL1        0.0646
    149 H           3.7320   -7.5138    0.0000 H       1  UNL1        0.2101
    150 H           4.8890   -3.2038    0.0000 H       1  UNL1        0.0255
    151 H           4.2690   -2.5838    0.0000 H       1  UNL1        0.0255
    152 H           3.6490   -3.2038    0.0000 H       1  UNL1        0.0255
    153 H           2.0000   -5.8938    0.0000 H       1  UNL1        0.2100
    154 H           2.5369   -3.5838    0.0000 H       1  UNL1        0.2100
@<TRIPOS>BOND
     1     1    26    1
     2    33     1    1
     3     2    33    1
     4     2    47    1
     5    44     3    1
     6    49     3    1
     7     4    49    1
     8     4    52    1
     9    50     5    1
    10    55     5    1
    11    51     6    1
    12     6   122    1
    13    53     7    1
    14    57     7    1
    15     8    55    1
    16     8    59    1
    17     9    54    1
    18     9   125    1
    19    10    57    1
    20    10    63    1
    21    56    11    1
    22    11   131    1
    23    58    12    1
    24    12   137    1
    25    60    13    1
    26    13   138    1
    27    61    14    1
    28    14   139    1
    29    62    15    1
    30    67    15    1
    31    64    16    1
    32    16   142    1
    33    17    66    1
    34    17   145    1
    35    18    67    1
    36    18    70    1
    37    68    19    1
    38    19   149    1
    39    69    20    1
    40    20   153    1
    41    71    21    1
    42    21   154    1
    43    22    23    1
    44    22    24    1
    45    22    29    1
    46    22    34    1
    47    23    25    1
    48    23    28    1
    49    23    73    1
    50    24    26    1
    51    24    30    1
    52    24    74    1
    53    25    27    1
    54    25    35    1
    55    25    75    1
    56    26    28    1
    57    26    76    1
    58    27    31    1
    59    27    32    1
    60    27    77    1
    61    28    78    1
    62    28    79    1
    63    29    31    1
    64    29    80    1
    65    29    81    1
    66    30    33    1
    67    30    38    1
    68    30    82    1
    69    31    83    1
    70    31    84    1
    71    32    36    1
    72    32    37    1
    73    32    41    1
    74    33    39    1
    75    34    85    1
    76    34    86    1
    77    34    87    1
    78    35    40    1
    79    35    88    1
    80    35    89    1
    81    36    40    2
    82    36    42    1
    83    37    43    1
    84    37    90    1
    85    37    91    1
    86    38    92    1
    87    38    93    1
    88    38    94    1
    89    39    45    1
    90    39    95    1
    91    39    96    1
    92    40    97    1
    93    41    98    1
    94    41    99    1
    95    41   100    1
    96    42    44    1
    97    42   101    1
    98    42   102    1
    99    43    44    1
   100    43   103    1
   101    43   104    1
   102    44   105    1
   103    45    46    1
   104    45   106    1
   105    45   107    1
   106    46    47    1
   107    46    48    1
   108    46   108    1
   109    47   109    1
   110    47   110    1
   111    48   111    1
   112    48   112    1
   113    48   113    1
   114    49    50    1
   115    49   114    1
   116    50    51    1
   117    50   115    1
   118    51    53    1
   119    51   116    1
   120    52    53    1
   121    52    54    1
   122    52   117    1
   123    53   118    1
   124    54   119    1
   125    54   120    1
   126    55    56    1
   127    55   121    1
   128    56    58    1
   129    56   123    1
   130    57    60    1
   131    57   124    1
   132    58    61    1
   133    58   126    1
   134    59    61    1
   135    59    65    1
   136    59   127    1
   137    60    62    1
   138    60   128    1
   139    61   129    1
   140    62    64    1
   141    62   130    1
   142    63    64    1
   143    63    66    1
   144    63   132    1
   145    64   133    1
   146    65   134    1
   147    65   135    1
   148    65   136    1
   149    66   140    1
   150    66   141    1
   151    67    68    1
   152    67   143    1
   153    68    69    1
   154    68   144    1
   155    69    71    1
   156    69   146    1
   157    70    71    1
   158    70    72    1
   159    70   147    1
   160    71   148    1
   161    72   150    1
   162    72   151    1
   163    72   152    1
