@<TRIPOS>MOLECULE
IMPHY004096
 36 35 0 0 0
SMALL
GASTEIGER

@<TRIPOS>ATOM
      1 S           2.8660    0.0000    0.0000 S.O2    1  UNL1       -0.0338
      2 O           2.3660    0.8660    0.0000 O.2     1  UNL1       -0.1746
      3 O           3.3660   -0.8660    0.0000 O.2     1  UNL1       -0.1746
      4 N          12.3923   -0.5000    0.0000 N.1     1  UNL1       -0.1966
      5 C           6.3301    0.0000    0.0000 C.3     1  UNL1       -0.0530
      6 C           5.4641    0.5000    0.0000 C.3     1  UNL1       -0.0516
      7 C           7.1962    0.5000    0.0000 C.3     1  UNL1       -0.0531
      8 C           4.5981    0.0000    0.0000 C.3     1  UNL1       -0.0336
      9 C           8.0622    0.0000    0.0000 C.3     1  UNL1       -0.0530
     10 C           3.7320    0.5000    0.0000 C.3     1  UNL1        0.0654
     11 C           8.9282    0.5000    0.0000 C.3     1  UNL1       -0.0521
     12 C           9.7942    0.0000    0.0000 C.3     1  UNL1       -0.0402
     13 C          10.6603    0.5000    0.0000 C.3     1  UNL1        0.0348
     14 C           2.0000   -0.5000    0.0000 C.3     1  UNL1        0.0544
     15 C          11.5263    0.0000    0.0000 C.1     1  UNL1        0.0625
     16 H           5.9316   -0.4749    0.0000 H       1  UNL1        0.0265
     17 H           6.7287   -0.4749    0.0000 H       1  UNL1        0.0265
     18 H           5.8626    0.9749    0.0000 H       1  UNL1        0.0266
     19 H           5.0656    0.9749    0.0000 H       1  UNL1        0.0266
     20 H           7.5947    0.9749    0.0000 H       1  UNL1        0.0265
     21 H           6.7976    0.9749    0.0000 H       1  UNL1        0.0265
     22 H           4.1996   -0.4749    0.0000 H       1  UNL1        0.0281
     23 H           4.9966   -0.4749    0.0000 H       1  UNL1        0.0281
     24 H           7.6636   -0.4749    0.0000 H       1  UNL1        0.0265
     25 H           8.4607   -0.4749    0.0000 H       1  UNL1        0.0265
     26 H           4.1306    0.9749    0.0000 H       1  UNL1        0.0500
     27 H           3.3335    0.9749    0.0000 H       1  UNL1        0.0500
     28 H           9.3267    0.9749    0.0000 H       1  UNL1        0.0266
     29 H           8.5297    0.9749    0.0000 H       1  UNL1        0.0266
     30 H           9.3957   -0.4749    0.0000 H       1  UNL1        0.0275
     31 H          10.1928   -0.4749    0.0000 H       1  UNL1        0.0275
     32 H          11.0588    0.9749    0.0000 H       1  UNL1        0.0418
     33 H          10.2617    0.9749    0.0000 H       1  UNL1        0.0418
     34 H           1.6900    0.0369    0.0000 H       1  UNL1        0.0464
     35 H           1.4631   -0.8100    0.0000 H       1  UNL1        0.0464
     36 H           2.3100   -1.0369    0.0000 H       1  UNL1        0.0464
@<TRIPOS>BOND
     1     1     2    2
     2     1     3    2
     3     1    10    1
     4     1    14    1
     5     4    15    3
     6     5     6    1
     7     5     7    1
     8     5    16    1
     9     5    17    1
    10     6     8    1
    11     6    18    1
    12     6    19    1
    13     7     9    1
    14     7    20    1
    15     7    21    1
    16     8    10    1
    17     8    22    1
    18     8    23    1
    19     9    11    1
    20     9    24    1
    21     9    25    1
    22    10    26    1
    23    10    27    1
    24    11    12    1
    25    11    28    1
    26    11    29    1
    27    12    13    1
    28    12    30    1
    29    12    31    1
    30    13    15    1
    31    13    32    1
    32    13    33    1
    33    14    34    1
    34    14    35    1
    35    14    36    1
