@<TRIPOS>MOLECULE
IMPHY015986
 45 46 0 0 0
SMALL
GASTEIGER

@<TRIPOS>ATOM
      1 O           3.5043   -0.0131    0.0000 O.3     1  UNL1       -0.4573
      2 O           3.4957    1.7189    0.0000 O.2     1  UNL1       -0.2511
      3 C           6.6924    0.5028    0.0000 C.3     1  UNL1       -0.0279
      4 C           6.6974   -0.4972    0.0000 C.3     1  UNL1       -0.0130
      5 C           5.9075    1.1224    0.0000 C.3     1  UNL1       -0.0366
      6 C           7.6371    0.8122    0.0000 C.3     1  UNL1       -0.0279
      7 C           7.6451   -0.7972    0.0000 C.3     1  UNL1       -0.0247
      8 C           8.2247    0.0104    0.0000 C.2     1  UNL1       -0.0700
      9 C           4.9337    0.8950    0.0000 C.3     1  UNL1       -0.0091
     10 C           5.9187   -1.1246    0.0000 C.2     1  UNL1       -0.0694
     11 C           4.5043   -0.0081    0.0000 C.3     1  UNL1        0.1217
     12 C           6.1251    2.0984    0.0000 C.3     1  UNL1       -0.0620
     13 C           4.9427   -0.9069    0.0000 C.2     1  UNL1       -0.0447
     14 C           9.2247    0.0154    0.0000 C.2     1  UNL1       -0.0764
     15 C           6.1461   -2.0984    0.0000 C.3     1  UNL1       -0.0434
     16 C           9.7290   -0.8481    0.0000 C.3     1  UNL1       -0.0438
     17 C           9.7204    0.8839    0.0000 C.3     1  UNL1       -0.0438
     18 C           3.0000    0.8504    0.0000 C.2     1  UNL1        0.3045
     19 C           2.0000    0.8454    0.0000 C.3     1  UNL1        0.0333
     20 H           7.1953    0.1402    0.0000 H       1  UNL1        0.0312
     21 H           6.8119   -1.1065    0.0000 H       1  UNL1        0.0351
     22 H           6.4917    1.3300    0.0000 H       1  UNL1        0.0302
     23 H           8.1729    1.1241    0.0000 H       1  UNL1        0.0313
     24 H           7.3832    1.3779    0.0000 H       1  UNL1        0.0313
     25 H           7.3969   -1.3654    0.0000 H       1  UNL1        0.0316
     26 H           8.1840   -1.1038    0.0000 H       1  UNL1        0.0316
     27 H           4.9306    1.5150    0.0000 H       1  UNL1        0.0307
     28 H           4.3285    1.0299    0.0000 H       1  UNL1        0.0307
     29 H           4.1718    0.5152    0.0000 H       1  UNL1        0.0779
     30 H           6.7303    1.9634    0.0000 H       1  UNL1        0.0233
     31 H           6.2601    2.7035    0.0000 H       1  UNL1        0.0233
     32 H           5.5200    2.2333    0.0000 H       1  UNL1        0.0233
     33 H           4.5585   -1.3936    0.0000 H       1  UNL1        0.0608
     34 H           5.5423   -2.2394    0.0000 H       1  UNL1        0.0274
     35 H           6.2870   -2.7022    0.0000 H       1  UNL1        0.0274
     36 H           6.7498   -1.9574    0.0000 H       1  UNL1        0.0274
     37 H           9.1936   -1.1608    0.0000 H       1  UNL1        0.0274
     38 H          10.0417   -1.3835    0.0000 H       1  UNL1        0.0274
     39 H          10.2644   -0.5354    0.0000 H       1  UNL1        0.0274
     40 H          10.2589    0.5766    0.0000 H       1  UNL1        0.0274
     41 H          10.0277    1.4224    0.0000 H       1  UNL1        0.0274
     42 H           9.1819    1.1912    0.0000 H       1  UNL1        0.0274
     43 H           1.9969    1.4654    0.0000 H       1  UNL1        0.0342
     44 H           1.3800    0.8423    0.0000 H       1  UNL1        0.0342
     45 H           2.0031    0.2254    0.0000 H       1  UNL1        0.0342
@<TRIPOS>BOND
     1     1    11    1
     2     1    18    1
     3     2    18    2
     4     3     4    1
     5     3     5    1
     6     3     6    1
     7     3    20    1
     8     4     7    1
     9     4    10    1
    10     4    21    1
    11     5     9    1
    12     5    12    1
    13     5    22    1
    14     6     8    1
    15     6    23    1
    16     6    24    1
    17     7     8    1
    18     7    25    1
    19     7    26    1
    20     8    14    2
    21     9    11    1
    22     9    27    1
    23     9    28    1
    24    10    13    2
    25    10    15    1
    26    11    13    1
    27    11    29    1
    28    12    30    1
    29    12    31    1
    30    12    32    1
    31    13    33    1
    32    14    16    1
    33    14    17    1
    34    15    34    1
    35    15    35    1
    36    15    36    1
    37    16    37    1
    38    16    38    1
    39    16    39    1
    40    17    40    1
    41    17    41    1
    42    17    42    1
    43    18    19    1
    44    19    43    1
    45    19    44    1
    46    19    45    1
