@<TRIPOS>MOLECULE
IMPHY012394
 102 108 0 0 0
SMALL
GASTEIGER

@<TRIPOS>ATOM
      1 O          11.2303    1.6674    0.0000 O.3     1  UNL1       -0.3877
      2 O           9.4651   -3.5361    0.0000 O.3     1  UNL1       -0.3454
      3 O           7.6262    5.1811    0.0000 O.3     1  UNL1       -0.4571
      4 O           7.7331   -3.5361    0.0000 O.3     1  UNL1       -0.3431
      5 O           8.2613    6.8461    0.0000 O.2     1  UNL1       -0.2456
      6 O           9.4651   -5.5361    0.0000 O.3     1  UNL1       -0.3841
      7 O           7.7331   -6.5361    0.0000 O.3     1  UNL1       -0.3864
      8 O           6.0010   -5.5361    0.0000 O.3     1  UNL1       -0.3402
      9 O           5.1350   -4.0361    0.0000 O.3     1  UNL1       -0.3405
     10 O           4.2690   -6.5361    0.0000 O.3     1  UNL1       -0.3841
     11 O           2.5369   -5.5361    0.0000 O.3     1  UNL1       -0.3864
     12 O           2.5369   -3.5361    0.0000 O.3     1  UNL1       -0.3865
     13 O           5.1350   -2.0361    0.0000 O.3     1  UNL1       -0.3924
     14 C          10.3623    2.1641    0.0000 C.3     1  UNL1        0.0751
     15 C          10.3662    1.1641    0.0000 C.3     1  UNL1       -0.0083
     16 C           9.5021    0.6608    0.0000 C.3     1  UNL1       -0.0299
     17 C           9.4944    2.6608    0.0000 C.3     1  UNL1        0.0036
     18 C           9.4901   -0.3808    0.0000 C.3     1  UNL1       -0.0259
     19 C          10.3901   -0.9051    0.0000 C.3     1  UNL1       -0.0330
     20 C           8.6342    1.1574    0.0000 C.3     1  UNL1       -0.0488
     21 C           8.6303    2.1574    0.0000 C.3     1  UNL1       -0.0442
     22 C           9.6999    3.6334    0.0000 C.3     1  UNL1       -0.0081
     23 C          11.2781    0.6608    0.0000 C.3     1  UNL1       -0.0470
     24 C          11.0968    2.8340    0.0000 C.3     1  UNL1       -0.0226
     25 C          11.2902   -0.3808    0.0000 C.3     1  UNL1       -0.0493
     26 C          10.6882    3.7402    0.0000 C.3     1  UNL1       -0.0432
     27 C           8.5402   -0.9051    0.0000 C.3     1  UNL1       -0.0448
     28 C          10.4027   -1.9900    0.0000 C.3     1  UNL1       -0.0232
     29 C           8.6264    3.1574    0.0000 C.3     1  UNL1       -0.0564
     30 C           8.6260    0.1225    0.0000 C.3     1  UNL1       -0.0590
     31 C           8.5276   -1.9900    0.0000 C.3     1  UNL1       -0.0260
     32 C           9.4651   -2.5361    0.0000 C.3     1  UNL1        0.0621
     33 C           9.0292    4.3751    0.0000 C.2     1  UNL1       -0.0222
     34 C           8.0348    4.2684    0.0000 C.3     1  UNL1        0.1147
     35 C           9.2350    5.3537    0.0000 C.2     1  UNL1        0.0252
     36 C           8.5991   -4.0361    0.0000 C.3     1  UNL1        0.1881
     37 C           8.3679    5.8518    0.0000 C.2     1  UNL1        0.3323
     38 C           8.5991   -5.0361    0.0000 C.3     1  UNL1        0.1341
     39 C           7.7331   -5.5361    0.0000 C.3     1  UNL1        0.1143
     40 C           6.8671   -4.0361    0.0000 C.3     1  UNL1        0.0877
     41 C           6.8671   -5.0361    0.0000 C.3     1  UNL1        0.1160
     42 C           6.0010   -3.5361    0.0000 C.3     1  UNL1       -0.0361
     43 C           5.1350   -5.0361    0.0000 C.3     1  UNL1        0.1884
     44 C           4.2690   -5.5361    0.0000 C.3     1  UNL1        0.1341
     45 C           3.4030   -5.0361    0.0000 C.3     1  UNL1        0.1141
     46 C           4.2690   -3.5361    0.0000 C.3     1  UNL1        0.1130
     47 C           3.4030   -4.0361    0.0000 C.3     1  UNL1        0.1119
     48 C           4.2690   -2.5361    0.0000 C.3     1  UNL1        0.0730
     49 H          11.0974    1.5976    0.0000 H       1  UNL1        0.0331
     50 H          10.2366    0.2329    0.0000 H       1  UNL1        0.0310
     51 H          11.1295   -1.3244    0.0000 H       1  UNL1        0.0307
     52 H           8.0232    1.2627    0.0000 H       1  UNL1        0.0268
     53 H           8.4244    0.5740    0.0000 H       1  UNL1        0.0268
     54 H           8.4160    2.7392    0.0000 H       1  UNL1        0.0272
     55 H           8.0201    2.0474    0.0000 H       1  UNL1        0.0272
     56 H           9.9206    4.2128    0.0000 H       1  UNL1        0.0353
     57 H          11.8902    0.5617    0.0000 H       1  UNL1        0.0269
     58 H          11.4804    1.2468    0.0000 H       1  UNL1        0.0269
     59 H          11.4642    2.3346    0.0000 H       1  UNL1        0.0293
     60 H          11.6321    3.1468    0.0000 H       1  UNL1        0.0293
     61 H          11.5060   -0.9620    0.0000 H       1  UNL1        0.0268
     62 H          11.8998   -0.2677    0.0000 H       1  UNL1        0.0268
     63 H          11.2770    3.9343    0.0000 H       1  UNL1        0.0272
     64 H          10.5571    4.3462    0.0000 H       1  UNL1        0.0272
     65 H           8.3379   -0.3190    0.0000 H       1  UNL1        0.0271
     66 H           7.9281   -1.0041    0.0000 H       1  UNL1        0.0271
     67 H          10.6185   -2.5712    0.0000 H       1  UNL1        0.0293
     68 H          11.0123   -1.8769    0.0000 H       1  UNL1        0.0293
     69 H           8.9344    3.6955    0.0000 H       1  UNL1        0.0236
     70 H           8.0883    3.4653    0.0000 H       1  UNL1        0.0236
     71 H           8.3185    2.6193    0.0000 H       1  UNL1        0.0236
     72 H           8.9380    0.6583    0.0000 H       1  UNL1        0.0235
     73 H           8.0902    0.4346    0.0000 H       1  UNL1        0.0235
     74 H           8.3139   -0.4132    0.0000 H       1  UNL1        0.0235
     75 H           7.9180   -1.8769    0.0000 H       1  UNL1        0.0290
     76 H           8.3118   -2.5712    0.0000 H       1  UNL1        0.0290
     77 H          10.0027   -2.8451    0.0000 H       1  UNL1        0.0597
     78 H          11.7660    1.9795    0.0000 H       1  UNL1        0.2102
     79 H           7.4456    4.0756    0.0000 H       1  UNL1        0.0746
     80 H           8.1650    3.6623    0.0000 H       1  UNL1        0.0746
     81 H           9.8008    5.6070    0.0000 H       1  UNL1        0.0689
     82 H           8.5991   -3.4161    0.0000 H       1  UNL1        0.0937
     83 H           8.5991   -5.6561    0.0000 H       1  UNL1        0.0671
     84 H           7.1962   -5.8461    0.0000 H       1  UNL1        0.0648
     85 H           6.8671   -3.4161    0.0000 H       1  UNL1        0.0621
     86 H           6.3301   -4.7261    0.0000 H       1  UNL1        0.0650
     87 H          10.0021   -5.2261    0.0000 H       1  UNL1        0.2101
     88 H           6.3110   -2.9992    0.0000 H       1  UNL1        0.0255
     89 H           5.4641   -3.2261    0.0000 H       1  UNL1        0.0255
     90 H           5.6910   -4.0731    0.0000 H       1  UNL1        0.0255
     91 H           8.2700   -6.8461    0.0000 H       1  UNL1        0.2100
     92 H           5.1350   -5.6561    0.0000 H       1  UNL1        0.0938
     93 H           3.7320   -5.8461    0.0000 H       1  UNL1        0.0671
     94 H           2.8660   -4.7261    0.0000 H       1  UNL1        0.0648
     95 H           4.8059   -3.2261    0.0000 H       1  UNL1        0.0647
     96 H           3.4030   -3.4161    0.0000 H       1  UNL1        0.0647
     97 H           3.7320   -6.8461    0.0000 H       1  UNL1        0.2101
     98 H           4.0569   -1.9535    0.0000 H       1  UNL1        0.0584
     99 H           3.6584   -2.6438    0.0000 H       1  UNL1        0.0584
    100 H           2.0000   -5.2261    0.0000 H       1  UNL1        0.2100
    101 H           2.5369   -2.9161    0.0000 H       1  UNL1        0.2100
    102 H           5.1350   -1.4161    0.0000 H       1  UNL1        0.2095
@<TRIPOS>BOND
     1    14     1    1
     2     1    78    1
     3    32     2    1
     4     2    36    1
     5     3    34    1
     6     3    37    1
     7     4    36    1
     8     4    40    1
     9     5    37    2
    10    38     6    1
    11     6    87    1
    12    39     7    1
    13     7    91    1
    14     8    41    1
    15    43     8    1
    16     9    43    1
    17     9    46    1
    18    44    10    1
    19    10    97    1
    20    45    11    1
    21    11   100    1
    22    47    12    1
    23    12   101    1
    24    13    48    1
    25    13   102    1
    26    14    15    1
    27    14    17    1
    28    14    24    1
    29    15    16    1
    30    15    23    1
    31    15    49    1
    32    16    18    1
    33    16    20    1
    34    16    50    1
    35    17    21    1
    36    17    22    1
    37    17    29    1
    38    18    19    1
    39    18    27    1
    40    18    30    1
    41    19    25    1
    42    19    28    1
    43    19    51    1
    44    20    21    1
    45    20    52    1
    46    20    53    1
    47    21    54    1
    48    21    55    1
    49    22    26    1
    50    22    33    1
    51    22    56    1
    52    23    25    1
    53    23    57    1
    54    23    58    1
    55    24    26    1
    56    24    59    1
    57    24    60    1
    58    25    61    1
    59    25    62    1
    60    26    63    1
    61    26    64    1
    62    27    31    1
    63    27    65    1
    64    27    66    1
    65    28    32    1
    66    28    67    1
    67    28    68    1
    68    29    69    1
    69    29    70    1
    70    29    71    1
    71    30    72    1
    72    30    73    1
    73    30    74    1
    74    31    32    1
    75    31    75    1
    76    31    76    1
    77    32    77    1
    78    33    34    1
    79    33    35    2
    80    34    79    1
    81    34    80    1
    82    35    37    1
    83    35    81    1
    84    36    38    1
    85    36    82    1
    86    38    39    1
    87    38    83    1
    88    39    41    1
    89    39    84    1
    90    40    41    1
    91    40    42    1
    92    40    85    1
    93    41    86    1
    94    42    88    1
    95    42    89    1
    96    42    90    1
    97    43    44    1
    98    43    92    1
    99    44    45    1
   100    44    93    1
   101    45    47    1
   102    45    94    1
   103    46    47    1
   104    46    48    1
   105    46    95    1
   106    47    96    1
   107    48    98    1
   108    48    99    1
