@<TRIPOS>MOLECULE
IMPHY015502
 27 27 0 0 0
SMALL
GASTEIGER

@<TRIPOS>ATOM
      1 O           3.7320    0.5000    0.0000 O.3     1  UNL1       -0.4597
      2 O           2.8660    2.0000    0.0000 O.2     1  UNL1       -0.2505
      3 C           4.5981    2.0000    0.0000 C.3     1  UNL1        0.0508
      4 C           4.5981    3.0000    0.0000 C.3     1  UNL1       -0.0525
      5 C           5.4641    1.5000    0.0000 C.3     1  UNL1       -0.0525
      6 C           3.7320    1.5000    0.0000 C.2     1  UNL1        0.3100
      7 C           2.8660    0.0000    0.0000 C.3     1  UNL1        0.1175
      8 C           2.8660   -1.0000    0.0000 C.ar    1  UNL1       -0.0103
      9 C           2.0000   -1.5000    0.0000 C.ar    1  UNL1       -0.0554
     10 C           3.7320   -1.5000    0.0000 C.ar    1  UNL1       -0.0554
     11 C           2.0000   -2.5000    0.0000 C.ar    1  UNL1       -0.0614
     12 C           3.7320   -2.5000    0.0000 C.ar    1  UNL1       -0.0614
     13 C           2.8660   -3.0000    0.0000 C.ar    1  UNL1       -0.0617
     14 H           4.5981    1.3800    0.0000 H       1  UNL1        0.0408
     15 H           5.2181    3.0000    0.0000 H       1  UNL1        0.0237
     16 H           4.5981    3.6200    0.0000 H       1  UNL1        0.0237
     17 H           3.9781    3.0000    0.0000 H       1  UNL1        0.0237
     18 H           5.1541    0.9631    0.0000 H       1  UNL1        0.0237
     19 H           6.0010    1.1900    0.0000 H       1  UNL1        0.0237
     20 H           5.7741    2.0369    0.0000 H       1  UNL1        0.0237
     21 H           2.6540    0.5826    0.0000 H       1  UNL1        0.0749
     22 H           2.2554   -0.1077    0.0000 H       1  UNL1        0.0749
     23 H           1.4631   -1.1900    0.0000 H       1  UNL1        0.0621
     24 H           4.2690   -1.1900    0.0000 H       1  UNL1        0.0621
     25 H           1.4631   -2.8100    0.0000 H       1  UNL1        0.0618
     26 H           4.2690   -2.8100    0.0000 H       1  UNL1        0.0618
     27 H           2.8660   -3.6200    0.0000 H       1  UNL1        0.0618
@<TRIPOS>BOND
     1     1     6    1
     2     1     7    1
     3     2     6    2
     4     3     4    1
     5     3     5    1
     6     3     6    1
     7     3    14    1
     8     4    15    1
     9     4    16    1
    10     4    17    1
    11     5    18    1
    12     5    19    1
    13     5    20    1
    14     7     8    1
    15     7    21    1
    16     7    22    1
    17     8     9   ar
    18     8    10   ar
    19     9    11   ar
    20     9    23    1
    21    10    12   ar
    22    10    24    1
    23    11    13   ar
    24    11    25    1
    25    12    13   ar
    26    12    26    1
    27    13    27    1
