@<TRIPOS>MOLECULE
IMPHY016736
 59 58 0 0 0
SMALL
GASTEIGER

@<TRIPOS>ATOM
      1 O          15.8564    0.0000    0.0000 O.3     1  UNL1       -0.4677
      2 O          14.9904    1.5000    0.0000 O.2     1  UNL1       -0.2505
      3 C          10.6603   -0.0000    0.0000 C.3     1  UNL1       -0.0531
      4 C           9.7942    0.5000    0.0000 C.3     1  UNL1       -0.0531
      5 C          11.5263    0.5000    0.0000 C.3     1  UNL1       -0.0530
      6 C           8.9282   -0.0000    0.0000 C.3     1  UNL1       -0.0531
      7 C          12.3923   -0.0000    0.0000 C.3     1  UNL1       -0.0523
      8 C           8.0622    0.5000    0.0000 C.3     1  UNL1       -0.0531
      9 C          13.2583    0.5000    0.0000 C.3     1  UNL1       -0.0401
     10 C           7.1962   -0.0000    0.0000 C.3     1  UNL1       -0.0531
     11 C          14.1244    0.0000    0.0000 C.3     1  UNL1        0.0562
     12 C           6.3301    0.5000    0.0000 C.3     1  UNL1       -0.0531
     13 C           5.4641   -0.0000    0.0000 C.3     1  UNL1       -0.0531
     14 C           4.5981    0.5000    0.0000 C.3     1  UNL1       -0.0531
     15 C          14.1244   -1.0000    0.0000 C.3     1  UNL1       -0.0430
     16 C           3.7320   -0.0000    0.0000 C.3     1  UNL1       -0.0533
     17 C          14.9904    0.5000    0.0000 C.2     1  UNL1        0.3099
     18 C           2.8660    0.5000    0.0000 C.3     1  UNL1       -0.0559
     19 C          13.2583   -1.5000    0.0000 C.3     1  UNL1       -0.0645
     20 C           2.0000   -0.0000    0.0000 C.3     1  UNL1       -0.0653
     21 C          16.7224    0.5000    0.0000 C.3     1  UNL1        0.0817
     22 H          10.2617   -0.4749    0.0000 H       1  UNL1        0.0265
     23 H          11.0588   -0.4749    0.0000 H       1  UNL1        0.0265
     24 H          10.1928    0.9749    0.0000 H       1  UNL1        0.0265
     25 H           9.3957    0.9749    0.0000 H       1  UNL1        0.0265
     26 H          11.9248    0.9749    0.0000 H       1  UNL1        0.0265
     27 H          11.1278    0.9749    0.0000 H       1  UNL1        0.0265
     28 H           8.5297   -0.4749    0.0000 H       1  UNL1        0.0265
     29 H           9.3267   -0.4749    0.0000 H       1  UNL1        0.0265
     30 H          11.9938   -0.4749    0.0000 H       1  UNL1        0.0265
     31 H          12.7908   -0.4749    0.0000 H       1  UNL1        0.0265
     32 H           8.4607    0.9749    0.0000 H       1  UNL1        0.0265
     33 H           7.6636    0.9749    0.0000 H       1  UNL1        0.0265
     34 H          13.6569    0.9749    0.0000 H       1  UNL1        0.0273
     35 H          12.8598    0.9749    0.0000 H       1  UNL1        0.0273
     36 H           6.7976   -0.4749    0.0000 H       1  UNL1        0.0265
     37 H           7.5947   -0.4749    0.0000 H       1  UNL1        0.0265
     38 H          13.5874   -0.3100    0.0000 H       1  UNL1        0.0413
     39 H           6.7287    0.9749    0.0000 H       1  UNL1        0.0265
     40 H           5.9316    0.9749    0.0000 H       1  UNL1        0.0265
     41 H           5.0656   -0.4749    0.0000 H       1  UNL1        0.0265
     42 H           5.8626   -0.4749    0.0000 H       1  UNL1        0.0265
     43 H           4.9966    0.9749    0.0000 H       1  UNL1        0.0265
     44 H           4.1996    0.9749    0.0000 H       1  UNL1        0.0265
     45 H          14.3364   -1.5826    0.0000 H       1  UNL1        0.0270
     46 H          14.7349   -0.8923    0.0000 H       1  UNL1        0.0270
     47 H           3.3335   -0.4749    0.0000 H       1  UNL1        0.0265
     48 H           4.1306   -0.4749    0.0000 H       1  UNL1        0.0265
     49 H           3.2646    0.9749    0.0000 H       1  UNL1        0.0263
     50 H           2.4675    0.9749    0.0000 H       1  UNL1        0.0263
     51 H          12.9483   -0.9631    0.0000 H       1  UNL1        0.0230
     52 H          12.7214   -1.8100    0.0000 H       1  UNL1        0.0230
     53 H          13.5683   -2.0369    0.0000 H       1  UNL1        0.0230
     54 H           1.6900    0.5369    0.0000 H       1  UNL1        0.0230
     55 H           1.4631   -0.3100    0.0000 H       1  UNL1        0.0230
     56 H           2.3100   -0.5369    0.0000 H       1  UNL1        0.0230
     57 H          17.0324   -0.0369    0.0000 H       1  UNL1        0.0661
     58 H          17.2594    0.8100    0.0000 H       1  UNL1        0.0661
     59 H          16.4124    1.0369    0.0000 H       1  UNL1        0.0661
@<TRIPOS>BOND
     1     1    17    1
     2     1    21    1
     3     2    17    2
     4     3     4    1
     5     3     5    1
     6     3    22    1
     7     3    23    1
     8     4     6    1
     9     4    24    1
    10     4    25    1
    11     5     7    1
    12     5    26    1
    13     5    27    1
    14     6     8    1
    15     6    28    1
    16     6    29    1
    17     7     9    1
    18     7    30    1
    19     7    31    1
    20     8    10    1
    21     8    32    1
    22     8    33    1
    23     9    11    1
    24     9    34    1
    25     9    35    1
    26    10    12    1
    27    10    36    1
    28    10    37    1
    29    11    15    1
    30    11    17    1
    31    11    38    1
    32    12    13    1
    33    12    39    1
    34    12    40    1
    35    13    14    1
    36    13    41    1
    37    13    42    1
    38    14    16    1
    39    14    43    1
    40    14    44    1
    41    15    19    1
    42    15    45    1
    43    15    46    1
    44    16    18    1
    45    16    47    1
    46    16    48    1
    47    18    20    1
    48    18    49    1
    49    18    50    1
    50    19    51    1
    51    19    52    1
    52    19    53    1
    53    20    54    1
    54    20    55    1
    55    20    56    1
    56    21    57    1
    57    21    58    1
    58    21    59    1
