@<TRIPOS>MOLECULE
IMPHY005758
 21 22 0 0 0
SMALL
GASTEIGER

@<TRIPOS>ATOM
      1 O           3.7320    2.0000    0.0000 O.2     1  UNL1       -0.2652
      2 O           2.0000   -1.0000    0.0000 O.2     1  UNL1       -0.2462
      3 N           3.7320   -1.0000    0.0000 N.ar    1  UNL1       -0.2796
      4 N           2.8660    0.5000    0.0000 N.ar    1  UNL1       -0.2622
      5 N           5.5443    0.8047    0.0000 N.ar    1  UNL1       -0.3389
      6 N           5.5443   -0.8047    0.0000 N.ar    1  UNL1       -0.2179
      7 C           4.5981   -0.5000    0.0000 C.ar    1  UNL1        0.1676
      8 C           4.5981    0.5000    0.0000 C.ar    1  UNL1        0.1488
      9 C           3.7320    1.0000    0.0000 C.ar    1  UNL1        0.2820
     10 C           2.8660   -0.5000    0.0000 C.ar    1  UNL1        0.3331
     11 C           3.7320   -2.0000    0.0000 C.3     1  UNL1        0.0181
     12 C           2.0000    1.0000    0.0000 C.3     1  UNL1        0.0196
     13 C           6.1279    0.0000    0.0000 C.ar    1  UNL1        0.0963
     14 H           5.7369    1.3940    0.0000 H       1  UNL1        0.1670
     15 H           3.1120   -2.0000    0.0000 H       1  UNL1        0.0458
     16 H           3.7320   -2.6200    0.0000 H       1  UNL1        0.0458
     17 H           4.3520   -2.0000    0.0000 H       1  UNL1        0.0458
     18 H           2.3100    1.5369    0.0000 H       1  UNL1        0.0458
     19 H           1.4631    1.3100    0.0000 H       1  UNL1        0.0458
     20 H           1.6900    0.4631    0.0000 H       1  UNL1        0.0458
     21 H           6.7479    0.0000    0.0000 H       1  UNL1        0.1027
@<TRIPOS>BOND
     1     1     9    2
     2     2    10    2
     3     3     7   ar
     4     3    10   ar
     5     3    11    1
     6     4     9   ar
     7     4    10   ar
     8     4    12    1
     9     5     8   ar
    10     5    13   ar
    11     5    14    1
    12     6     7   ar
    13     6    13   ar
    14     7     8   ar
    15     8     9   ar
    16    11    15    1
    17    11    16    1
    18    11    17    1
    19    12    18    1
    20    12    19    1
    21    12    20    1
    22    13    21    1
