@<TRIPOS>MOLECULE
IMPHY004665
 14 14 0 0 0
SMALL
GASTEIGER

@<TRIPOS>ATOM
      1 O           2.0000   -1.3450    0.0000 O.3     1  UNL1       -0.5066
      2 O           3.7320    1.6550    0.0000 O.3     1  UNL1       -0.5066
      3 C           2.8660   -0.8450    0.0000 C.ar    1  UNL1        0.1203
      4 C           3.7320    0.6550    0.0000 C.ar    1  UNL1        0.1203
      5 C           2.8660    0.1550    0.0000 C.ar    1  UNL1        0.0213
      6 C           3.7320   -1.3450    0.0000 C.ar    1  UNL1       -0.0199
      7 C           4.5981    0.1550    0.0000 C.ar    1  UNL1       -0.0199
      8 C           4.5981   -0.8450    0.0000 C.ar    1  UNL1       -0.0549
      9 H           2.3291    0.4650    0.0000 H       1  UNL1        0.0691
     10 H           3.7320   -1.9650    0.0000 H       1  UNL1        0.0654
     11 H           5.1350    0.4650    0.0000 H       1  UNL1        0.0654
     12 H           5.1350   -1.1550    0.0000 H       1  UNL1        0.0620
     13 H           2.0000   -1.9650    0.0000 H       1  UNL1        0.2921
     14 H           4.2690    1.9650    0.0000 H       1  UNL1        0.2921
@<TRIPOS>BOND
     1     1     3    1
     2     1    13    1
     3     2     4    1
     4     2    14    1
     5     3     5   ar
     6     3     6   ar
     7     4     5   ar
     8     4     7   ar
     9     5     9    1
    10     6     8   ar
    11     6    10    1
    12     7     8   ar
    13     7    11    1
    14     8    12    1
