@<TRIPOS>MOLECULE
IMPHY001175
 75 80 0 0 0
SMALL
GASTEIGER

@<TRIPOS>ATOM
      1 O           3.9038   -0.7026    0.0000 O.3     1  UNL1       -0.3728
      2 O           7.2441    1.8904    0.0000 O.3     1  UNL1       -0.3791
      3 O           3.5272    1.4645    0.0000 O.3     1  UNL1       -0.3910
      4 O           3.1264    2.3483    0.0000 O.3     1  UNL1       -0.3793
      5 O           8.1101   -2.3448    0.0000 O.3     1  UNL1       -0.3824
      6 N           8.4394    0.0613    0.0000 N.3     1  UNL1       -0.2981
      7 C           6.4927    0.4566    0.0000 C.3     1  UNL1        0.0195
      8 C           6.4927   -0.4110    0.0000 C.3     1  UNL1       -0.0220
      9 C           5.8144    0.9975    0.0000 C.3     1  UNL1       -0.0231
     10 C           7.4947    0.3505    0.0000 C.3     1  UNL1        0.0244
     11 C           4.9686   -0.7589    0.0000 C.3     1  UNL1        0.0051
     12 C           4.9686    0.8044    0.0000 C.3     1  UNL1        0.0183
     13 C           4.5922    0.0228    0.0000 C.3     1  UNL1        0.0815
     14 C           5.8144   -0.9519    0.0000 C.3     1  UNL1       -0.0420
     15 C           7.2441   -0.8448    0.0000 C.3     1  UNL1        0.0104
     16 C           7.2441    0.8904    0.0000 C.3     1  UNL1        0.0659
     17 C           5.8922    1.8616    0.0000 C.3     1  UNL1       -0.0416
     18 C           5.0944    2.2026    0.0000 C.3     1  UNL1        0.0120
     19 C           4.5236    1.5492    0.0000 C.3     1  UNL1        0.0661
     20 C           3.9473    0.2927    0.0000 C.3     1  UNL1        0.0036
     21 C           8.4394   -0.6906    0.0000 C.3     1  UNL1        0.0072
     22 C           7.9954   -0.4110    0.0000 C.3     1  UNL1       -0.0415
     23 C           3.9473    1.7772    0.0000 C.3     1  UNL1        0.0661
     24 C           7.9954    0.4566    0.0000 C.3     1  UNL1       -0.0254
     25 C           7.2441   -1.8448    0.0000 C.3     1  UNL1        0.0544
     26 C           9.2434    0.6560    0.0000 C.3     1  UNL1       -0.0036
     27 C           2.9315   -0.4692    0.0000 C.3     1  UNL1        0.0456
     28 C          10.1603    0.2571    0.0000 C.3     1  UNL1       -0.0523
     29 C           8.1101    2.3904    0.0000 C.3     1  UNL1        0.0368
     30 C           3.2106    3.3448    0.0000 C.3     1  UNL1        0.0368
     31 C           2.2431   -1.1946    0.0000 C.3     1  UNL1       -0.0415
     32 C           8.1101   -3.3448    0.0000 C.3     1  UNL1        0.0365
     33 H           6.5562   -1.2586    0.0000 H       1  UNL1        0.0314
     34 H           6.5960    1.3316    0.0000 H       1  UNL1        0.0312
     35 H           7.8066    1.1412    0.0000 H       1  UNL1        0.0473
     36 H           4.4386   -1.4234    0.0000 H       1  UNL1        0.0344
     37 H           4.1194    0.7663    0.0000 H       1  UNL1        0.0357
     38 H           6.2992   -1.3385    0.0000 H       1  UNL1        0.0272
     39 H           5.5454   -1.5105    0.0000 H       1  UNL1        0.0272
     40 H           6.7071    1.2004    0.0000 H       1  UNL1        0.0602
     41 H           6.0749    2.4540    0.0000 H       1  UNL1        0.0272
     42 H           6.5005    1.7418    0.0000 H       1  UNL1        0.0272
     43 H           5.1152    3.0523    0.0000 H       1  UNL1        0.0351
     44 H           4.2435    2.1023    0.0000 H       1  UNL1        0.0600
     45 H           3.7853   -0.3058    0.0000 H       1  UNL1        0.0318
     46 H           3.3327    0.3744    0.0000 H       1  UNL1        0.0318
     47 H           9.0588   -0.6640    0.0000 H       1  UNL1        0.0433
     48 H           8.4924   -1.3083    0.0000 H       1  UNL1        0.0433
     49 H           8.6060   -0.3033    0.0000 H       1  UNL1        0.0273
     50 H           8.2074   -0.9936    0.0000 H       1  UNL1        0.0273
     51 H           4.0254    2.3923    0.0000 H       1  UNL1        0.0600
     52 H           8.2075    1.0392    0.0000 H       1  UNL1        0.0290
     53 H           8.6060    0.3489    0.0000 H       1  UNL1        0.0290
     54 H           7.0320   -2.4274    0.0000 H       1  UNL1        0.0566
     55 H           6.6335   -1.7371    0.0000 H       1  UNL1        0.0566
     56 H           8.7937    1.0829    0.0000 H       1  UNL1        0.0424
     57 H           9.5856    1.1730    0.0000 H       1  UNL1        0.0424
     58 H           3.2638    0.9033    0.0000 H       1  UNL1        0.2098
     59 H           2.4144   -0.1270    0.0000 H       1  UNL1        0.0557
     60 H           3.1787    0.0994    0.0000 H       1  UNL1        0.0557
     61 H          10.4077    0.8256    0.0000 H       1  UNL1        0.0242
     62 H          10.7289    0.0098    0.0000 H       1  UNL1        0.0242
     63 H           9.9130   -0.3114    0.0000 H       1  UNL1        0.0242
     64 H           7.8001    2.9273    0.0000 H       1  UNL1        0.0524
     65 H           8.6470    2.7004    0.0000 H       1  UNL1        0.0524
     66 H           8.4201    1.8534    0.0000 H       1  UNL1        0.0524
     67 H           2.5928    3.3970    0.0000 H       1  UNL1        0.0524
     68 H           3.2627    3.9626    0.0000 H       1  UNL1        0.0524
     69 H           3.8284    3.2926    0.0000 H       1  UNL1        0.0524
     70 H           2.6929   -1.6214    0.0000 H       1  UNL1        0.0252
     71 H           1.8164   -1.6443    0.0000 H       1  UNL1        0.0252
     72 H           1.7934   -0.7678    0.0000 H       1  UNL1        0.0252
     73 H           8.7301   -3.3448    0.0000 H       1  UNL1        0.0523
     74 H           8.1101   -3.9648    0.0000 H       1  UNL1        0.0523
     75 H           7.4901   -3.3448    0.0000 H       1  UNL1        0.0523
@<TRIPOS>BOND
     1    13     1    1
     2     1    27    1
     3    16     2    1
     4     2    29    1
     5    19     3    1
     6     3    58    1
     7    23     4    1
     8     4    30    1
     9     5    25    1
    10     5    32    1
    11     6    10    1
    12     6    21    1
    13     6    26    1
    14     7     8    1
    15     7     9    1
    16     7    10    1
    17     7    16    1
    18     8    14    1
    19     8    15    1
    20     8    33    1
    21     9    12    1
    22     9    17    1
    23     9    34    1
    24    10    11    1
    25    10    35    1
    26    11    13    1
    27    11    14    1
    28    11    36    1
    29    12    13    1
    30    12    19    1
    31    12    37    1
    32    13    20    1
    33    14    38    1
    34    14    39    1
    35    15    21    1
    36    15    22    1
    37    15    25    1
    38    16    24    1
    39    16    40    1
    40    17    18    1
    41    17    41    1
    42    17    42    1
    43    18    19    1
    44    18    23    1
    45    18    43    1
    46    19    44    1
    47    20    23    1
    48    20    45    1
    49    20    46    1
    50    21    47    1
    51    21    48    1
    52    22    24    1
    53    22    49    1
    54    22    50    1
    55    23    51    1
    56    24    52    1
    57    24    53    1
    58    25    54    1
    59    25    55    1
    60    26    28    1
    61    26    56    1
    62    26    57    1
    63    27    31    1
    64    27    59    1
    65    27    60    1
    66    28    61    1
    67    28    62    1
    68    28    63    1
    69    29    64    1
    70    29    65    1
    71    29    66    1
    72    30    67    1
    73    30    68    1
    74    30    69    1
    75    31    70    1
    76    31    71    1
    77    31    72    1
    78    32    73    1
    79    32    74    1
    80    32    75    1
