@<TRIPOS>MOLECULE
IMPHY013618
 52 55 0 0 0
SMALL
GASTEIGER

@<TRIPOS>ATOM
      1 O           5.8626   -1.9111    0.0000 O.3     1  UNL1       -0.4526
      2 O           6.1107    0.3673    0.0000 O.2     1  UNL1       -0.2884
      3 O           5.8440   -3.6686    0.0000 O.2     1  UNL1       -0.2502
      4 O           4.0000    2.8006    0.0000 O.3     1  UNL1       -0.3843
      5 C           3.5126   -1.1327    0.0000 C.3     1  UNL1       -0.0175
      6 C           4.3786   -1.6327    0.0000 C.3     1  UNL1        0.0249
      7 C           4.3947   -2.6742    0.0000 C.3     1  UNL1        0.0721
      8 C           3.5126   -0.1327    0.0000 C.3     1  UNL1       -0.0067
      9 C           5.2446   -1.1327    0.0000 C.3     1  UNL1        0.1690
     10 C           2.6026   -1.6395    0.0000 C.3     1  UNL1       -0.0466
     11 C           3.4966   -3.2020    0.0000 C.3     1  UNL1       -0.0371
     12 C           2.5946   -2.6811    0.0000 C.3     1  UNL1       -0.0515
     13 C           4.3786    0.3673    0.0000 C.2     1  UNL1        0.0012
     14 C           2.6026    0.3741    0.0000 C.3     1  UNL1       -0.0427
     15 C           2.6466   -0.6327    0.0000 C.3     1  UNL1       -0.0586
     16 C           5.2446   -0.1327    0.0000 C.2     1  UNL1        0.1999
     17 C           5.3827   -2.7814    0.0000 C.2     1  UNL1        0.3141
     18 C           4.9047   -3.5344    0.0000 C.3     1  UNL1       -0.0490
     19 C           2.5946    1.4158    0.0000 C.3     1  UNL1       -0.0196
     20 C           3.4966    1.9366    0.0000 C.3     1  UNL1        0.0871
     21 C           4.3947    1.4088    0.0000 C.2     1  UNL1       -0.0457
     22 C           3.0000    2.8045    0.0000 C.3     1  UNL1       -0.0142
     23 C           2.0000    2.8084    0.0000 C.3     1  UNL1       -0.0598
     24 C           3.5033    3.6686    0.0000 C.3     1  UNL1       -0.0598
     25 H           3.6425   -2.0577    0.0000 H       1  UNL1        0.0357
     26 H           4.2487   -0.5577    0.0000 H       1  UNL1        0.0355
     27 H           6.0473   -0.8528    0.0000 H       1  UNL1        0.0822
     28 H           2.3980   -1.0543    0.0000 H       1  UNL1        0.0271
     29 H           1.9910   -1.7409    0.0000 H       1  UNL1        0.0271
     30 H           3.0993   -3.6779    0.0000 H       1  UNL1        0.0276
     31 H           3.8976   -3.6748    0.0000 H       1  UNL1        0.0276
     32 H           1.9846   -2.5704    0.0000 H       1  UNL1        0.0266
     33 H           2.3810   -3.2632    0.0000 H       1  UNL1        0.0266
     34 H           1.9910    0.4755    0.0000 H       1  UNL1        0.0272
     35 H           2.3980   -0.2111    0.0000 H       1  UNL1        0.0272
     36 H           2.9566   -0.0958    0.0000 H       1  UNL1        0.0235
     37 H           2.1096   -0.3227    0.0000 H       1  UNL1        0.0235
     38 H           2.3366   -1.1696    0.0000 H       1  UNL1        0.0235
     39 H           4.3713   -3.8506    0.0000 H       1  UNL1        0.0240
     40 H           5.2209   -4.0677    0.0000 H       1  UNL1        0.0240
     41 H           5.4380   -3.2182    0.0000 H       1  UNL1        0.0240
     42 H           2.3810    1.9978    0.0000 H       1  UNL1        0.0296
     43 H           1.9846    1.3050    0.0000 H       1  UNL1        0.0296
     44 H           4.9352    1.7126    0.0000 H       1  UNL1        0.0604
     45 H           2.6921    3.3426    0.0000 H       1  UNL1        0.0326
     46 H           4.6200    2.7983    0.0000 H       1  UNL1        0.2106
     47 H           2.0024    3.4284    0.0000 H       1  UNL1        0.0233
     48 H           1.3800    2.8108    0.0000 H       1  UNL1        0.0233
     49 H           1.9976    2.1884    0.0000 H       1  UNL1        0.0233
     50 H           4.0391    3.3565    0.0000 H       1  UNL1        0.0233
     51 H           3.8154    4.2043    0.0000 H       1  UNL1        0.0233
     52 H           2.9676    3.9807    0.0000 H       1  UNL1        0.0233
@<TRIPOS>BOND
     1     1     9    1
     2     1    17    1
     3     2    16    2
     4     3    17    2
     5    20     4    1
     6     4    46    1
     7     5     6    1
     8     5     8    1
     9     5    10    1
    10     5    15    1
    11     6     7    1
    12     6     9    1
    13     6    25    1
    14     7    11    1
    15     7    17    1
    16     7    18    1
    17     8    13    1
    18     8    14    1
    19     8    26    1
    20     9    16    1
    21     9    27    1
    22    10    12    1
    23    10    28    1
    24    10    29    1
    25    11    12    1
    26    11    30    1
    27    11    31    1
    28    12    32    1
    29    12    33    1
    30    13    16    1
    31    13    21    2
    32    14    19    1
    33    14    34    1
    34    14    35    1
    35    15    36    1
    36    15    37    1
    37    15    38    1
    38    18    39    1
    39    18    40    1
    40    18    41    1
    41    19    20    1
    42    19    42    1
    43    19    43    1
    44    20    21    1
    45    20    22    1
    46    21    44    1
    47    22    23    1
    48    22    24    1
    49    22    45    1
    50    23    47    1
    51    23    48    1
    52    23    49    1
    53    24    50    1
    54    24    51    1
    55    24    52    1
