@<TRIPOS>MOLECULE
IMPHY004923
 61 66 0 0 0
SMALL
GASTEIGER

@<TRIPOS>ATOM
      1 O          13.8904   -0.2643    0.0000 O.2     1  UNL1       -0.4544
      2 O          10.3984    1.7704    0.0000 O.3     1  UNL1       -0.4486
      3 O           6.0682    0.2704    0.0000 O.2     1  UNL1       -0.4544
      4 O          12.1304    2.7704    0.0000 O.3     1  UNL1       -0.5026
      5 O          10.3984   -0.2296    0.0000 O.3     1  UNL1       -0.5031
      6 O          13.8788    2.8050    0.0000 O.2     1  UNL1       -0.2869
      7 O           4.3198   -2.7642    0.0000 O.3     1  UNL1       -0.5058
      8 O           6.0682   -2.7296    0.0000 O.2     1  UNL1       -0.2869
      9 O           2.5381    0.2945    0.0000 O.3     1  UNL1       -0.5065
     10 O          18.2528   -1.7638    0.0000 O.3     1  UNL1       -0.4951
     11 C          12.9965    1.2704    0.0000 C.ar    1  UNL1        0.1092
     12 C          12.9965    0.2704    0.0000 C.ar    1  UNL1        0.1465
     13 C          12.1304    1.7704    0.0000 C.ar    1  UNL1        0.1774
     14 C          11.2644    1.2704    0.0000 C.ar    1  UNL1        0.2116
     15 C          14.7965    0.2496    0.0000 C.ar    1  UNL1        0.1392
     16 C          13.8904    1.8050    0.0000 C.ar    1  UNL1        0.1967
     17 C           7.8003    0.2704    0.0000 C.ar    1  UNL1        0.0176
     18 C          12.1304   -0.2296    0.0000 C.ar    1  UNL1        0.0268
     19 C           6.9343   -0.2296    0.0000 C.ar    1  UNL1        0.1392
     20 C          11.2644    0.2704    0.0000 C.ar    1  UNL1        0.1664
     21 C           5.2022   -1.2296    0.0000 C.ar    1  UNL1        0.1055
     22 C          14.7965    1.2912    0.0000 C.ar    1  UNL1        0.0288
     23 C           5.2022   -0.2296    0.0000 C.ar    1  UNL1        0.1462
     24 C          15.6606   -0.2538    0.0000 C.ar    1  UNL1        0.0176
     25 C           9.5323    1.2704    0.0000 C.ar    1  UNL1        0.1288
     26 C           6.9343   -1.2296    0.0000 C.ar    1  UNL1        0.0288
     27 C           6.0682   -1.7296    0.0000 C.ar    1  UNL1        0.1966
     28 C           8.6663   -0.2296    0.0000 C.ar    1  UNL1       -0.0476
     29 C           7.8003    1.2704    0.0000 C.ar    1  UNL1       -0.0476
     30 C           9.5323    0.2704    0.0000 C.ar    1  UNL1       -0.0187
     31 C           8.6663    1.7704    0.0000 C.ar    1  UNL1       -0.0187
     32 C           4.3083   -1.7643    0.0000 C.ar    1  UNL1        0.1347
     33 C           4.3083    0.3051    0.0000 C.ar    1  UNL1        0.0231
     34 C          15.6567   -1.2538    0.0000 C.ar    1  UNL1       -0.0476
     35 C          16.5285    0.2429    0.0000 C.ar    1  UNL1       -0.0476
     36 C           3.4022   -0.2088    0.0000 C.ar    1  UNL1        0.1239
     37 C           3.4022   -1.2504    0.0000 C.ar    1  UNL1        0.0223
     38 C          16.5208   -1.7571    0.0000 C.ar    1  UNL1       -0.0193
     39 C          17.3926   -0.2604    0.0000 C.ar    1  UNL1       -0.0193
     40 C          17.3887   -1.2604    0.0000 C.ar    1  UNL1        0.1201
     41 C          19.1208   -1.2671    0.0000 C.3     1  UNL1        0.0788
     42 H          12.1304   -0.8496    0.0000 H       1  UNL1        0.0692
     43 H          15.3322    1.6033    0.0000 H       1  UNL1        0.0693
     44 H           7.4712   -1.5396    0.0000 H       1  UNL1        0.0693
     45 H           8.6663   -0.8496    0.0000 H       1  UNL1        0.0626
     46 H           7.2634    1.5804    0.0000 H       1  UNL1        0.0626
     47 H          10.0693   -0.0396    0.0000 H       1  UNL1        0.0654
     48 H           8.6663    2.3904    0.0000 H       1  UNL1        0.0654
     49 H           4.3154    0.9250    0.0000 H       1  UNL1        0.0691
     50 H          15.1186   -1.5617    0.0000 H       1  UNL1        0.0626
     51 H          16.5309    0.8629    0.0000 H       1  UNL1        0.0626
     52 H           2.8665   -1.5625    0.0000 H       1  UNL1        0.0691
     53 H          16.5184   -2.3771    0.0000 H       1  UNL1        0.0654
     54 H          17.9307    0.0475    0.0000 H       1  UNL1        0.0654
     55 H          11.5935    3.0804    0.0000 H       1  UNL1        0.2923
     56 H          10.3984   -0.8496    0.0000 H       1  UNL1        0.2923
     57 H           3.7865   -3.0804    0.0000 H       1  UNL1        0.2922
     58 H           2.0000   -0.0134    0.0000 H       1  UNL1        0.2921
     59 H          19.4287   -1.8052    0.0000 H       1  UNL1        0.0660
     60 H          19.6589   -0.9592    0.0000 H       1  UNL1        0.0660
     61 H          18.8128   -0.7290    0.0000 H       1  UNL1        0.0660
@<TRIPOS>BOND
     1     1    12   ar
     2     1    15   ar
     3     2    14    1
     4     2    25    1
     5     3    19   ar
     6     3    23   ar
     7     4    13    1
     8     4    55    1
     9     5    20    1
    10     5    56    1
    11     6    16    2
    12     7    32    1
    13     7    57    1
    14     8    27    2
    15     9    36    1
    16     9    58    1
    17    10    40    1
    18    10    41    1
    19    11    12   ar
    20    11    13   ar
    21    11    16   ar
    22    12    18   ar
    23    13    14   ar
    24    14    20   ar
    25    15    22   ar
    26    15    24    1
    27    16    22   ar
    28    17    19    1
    29    17    28   ar
    30    17    29   ar
    31    18    20   ar
    32    18    42    1
    33    19    26   ar
    34    21    23   ar
    35    21    27   ar
    36    21    32   ar
    37    22    43    1
    38    23    33   ar
    39    24    34   ar
    40    24    35   ar
    41    25    30   ar
    42    25    31   ar
    43    26    27   ar
    44    26    44    1
    45    28    30   ar
    46    28    45    1
    47    29    31   ar
    48    29    46    1
    49    30    47    1
    50    31    48    1
    51    32    37   ar
    52    33    36   ar
    53    33    49    1
    54    34    38   ar
    55    34    50    1
    56    35    39   ar
    57    35    51    1
    58    36    37   ar
    59    37    52    1
    60    38    40   ar
    61    38    53    1
    62    39    40   ar
    63    39    54    1
    64    41    59    1
    65    41    60    1
    66    41    61    1
