@<TRIPOS>MOLECULE
IMPHY008967
 116 115 0 0 0
SMALL
GASTEIGER

@<TRIPOS>ATOM
      1 O          21.0526    2.2500    0.0000 O.3     1  UNL1       -0.4619
      2 O          17.5885    2.2500    0.0000 O.3     1  UNL1       -0.4619
      3 O          21.9186    3.7500    0.0000 O.2     1  UNL1       -0.2509
      4 O          16.7224    3.7500    0.0000 O.2     1  UNL1       -0.2509
      5 O          19.3205    1.2500    0.0000 O.3     1  UNL1       -0.3850
      6 C          31.4449   -0.7500    0.0000 C.3     1  UNL1       -0.0530
      7 C           5.4641    2.2500    0.0000 C.3     1  UNL1       -0.0530
      8 C          30.5788   -0.2500    0.0000 C.3     1  UNL1       -0.0528
      9 C           6.3301    2.7500    0.0000 C.3     1  UNL1       -0.0528
     10 C          26.2487    2.2500    0.0000 C.3     1  UNL1       -0.0528
     11 C          12.3923    2.2500    0.0000 C.3     1  UNL1       -0.0528
     12 C          25.3827    2.7500    0.0000 C.3     1  UNL1       -0.0530
     13 C          13.2583    2.7500    0.0000 C.3     1  UNL1       -0.0530
     14 C          31.4449   -1.7500    0.0000 C.3     1  UNL1       -0.0531
     15 C           4.5981    2.7500    0.0000 C.3     1  UNL1       -0.0531
     16 C          30.5788    0.7500    0.0000 C.3     1  UNL1       -0.0496
     17 C           7.1962    2.2500    0.0000 C.3     1  UNL1       -0.0496
     18 C          27.1147    2.7500    0.0000 C.3     1  UNL1       -0.0496
     19 C          11.5263    2.7500    0.0000 C.3     1  UNL1       -0.0496
     20 C          24.5167    2.2500    0.0000 C.3     1  UNL1       -0.0526
     21 C          14.1244    2.2500    0.0000 C.3     1  UNL1       -0.0526
     22 C          32.3109   -2.2500    0.0000 C.3     1  UNL1       -0.0533
     23 C           3.7320    2.2500    0.0000 C.3     1  UNL1       -0.0533
     24 C          29.7128    1.2500    0.0000 C.3     1  UNL1       -0.0348
     25 C           8.0622    2.7500    0.0000 C.3     1  UNL1       -0.0348
     26 C          27.9808    2.2500    0.0000 C.3     1  UNL1       -0.0348
     27 C          10.6603    2.2500    0.0000 C.3     1  UNL1       -0.0348
     28 C          23.6506    2.7500    0.0000 C.3     1  UNL1       -0.0430
     29 C          14.9904    2.7500    0.0000 C.3     1  UNL1       -0.0430
     30 C          32.3109   -3.2500    0.0000 C.3     1  UNL1       -0.0559
     31 C           2.8660    2.7500    0.0000 C.3     1  UNL1       -0.0559
     32 C          29.7128    2.2500    0.0000 C.2     1  UNL1       -0.0879
     33 C          28.8468    2.7500    0.0000 C.2     1  UNL1       -0.0879
     34 C           8.9282    2.2500    0.0000 C.2     1  UNL1       -0.0879
     35 C           9.7942    2.7500    0.0000 C.2     1  UNL1       -0.0879
     36 C          22.7846    2.2500    0.0000 C.3     1  UNL1        0.0449
     37 C          15.8564    2.2500    0.0000 C.3     1  UNL1        0.0449
     38 C          33.1769   -3.7500    0.0000 C.3     1  UNL1       -0.0653
     39 C           2.0000    2.2500    0.0000 C.3     1  UNL1       -0.0653
     40 C          21.9186    2.7500    0.0000 C.2     1  UNL1        0.3072
     41 C          16.7224    2.7500    0.0000 C.2     1  UNL1        0.3072
     42 C          19.3205    2.2500    0.0000 C.3     1  UNL1        0.1231
     43 C          20.1865    2.7500    0.0000 C.3     1  UNL1        0.1215
     44 C          18.4545    2.7500    0.0000 C.3     1  UNL1        0.1215
     45 H          32.0554   -0.8577    0.0000 H       1  UNL1        0.0265
     46 H          31.6569   -0.1674    0.0000 H       1  UNL1        0.0265
     47 H           5.0656    1.7750    0.0000 H       1  UNL1        0.0265
     48 H           5.8626    1.7750    0.0000 H       1  UNL1        0.0265
     49 H          29.9683   -0.1423    0.0000 H       1  UNL1        0.0265
     50 H          30.3668   -0.8326    0.0000 H       1  UNL1        0.0265
     51 H           6.7287    3.2250    0.0000 H       1  UNL1        0.0265
     52 H           5.9316    3.2250    0.0000 H       1  UNL1        0.0265
     53 H          25.8502    1.7750    0.0000 H       1  UNL1        0.0265
     54 H          26.6472    1.7750    0.0000 H       1  UNL1        0.0265
     55 H          11.9938    1.7750    0.0000 H       1  UNL1        0.0265
     56 H          12.7908    1.7750    0.0000 H       1  UNL1        0.0265
     57 H          25.7812    3.2250    0.0000 H       1  UNL1        0.0265
     58 H          24.9842    3.2250    0.0000 H       1  UNL1        0.0265
     59 H          13.6569    3.2250    0.0000 H       1  UNL1        0.0265
     60 H          12.8598    3.2250    0.0000 H       1  UNL1        0.0265
     61 H          30.8343   -1.6423    0.0000 H       1  UNL1        0.0265
     62 H          31.2328   -2.3326    0.0000 H       1  UNL1        0.0265
     63 H           4.9966    3.2250    0.0000 H       1  UNL1        0.0265
     64 H           4.1996    3.2250    0.0000 H       1  UNL1        0.0265
     65 H          31.1894    0.6423    0.0000 H       1  UNL1        0.0268
     66 H          30.7909    1.3326    0.0000 H       1  UNL1        0.0268
     67 H           6.7976    1.7750    0.0000 H       1  UNL1        0.0268
     68 H           7.5947    1.7750    0.0000 H       1  UNL1        0.0268
     69 H          27.5133    3.2250    0.0000 H       1  UNL1        0.0268
     70 H          26.7162    3.2250    0.0000 H       1  UNL1        0.0268
     71 H          11.9248    3.2250    0.0000 H       1  UNL1        0.0268
     72 H          11.1278    3.2250    0.0000 H       1  UNL1        0.0268
     73 H          24.1181    1.7750    0.0000 H       1  UNL1        0.0265
     74 H          24.9152    1.7750    0.0000 H       1  UNL1        0.0265
     75 H          13.7258    1.7750    0.0000 H       1  UNL1        0.0265
     76 H          14.5229    1.7750    0.0000 H       1  UNL1        0.0265
     77 H          32.9215   -2.3577    0.0000 H       1  UNL1        0.0265
     78 H          32.5229   -1.6674    0.0000 H       1  UNL1        0.0265
     79 H           3.3335    1.7750    0.0000 H       1  UNL1        0.0265
     80 H           4.1306    1.7750    0.0000 H       1  UNL1        0.0265
     81 H          29.1022    1.3577    0.0000 H       1  UNL1        0.0307
     82 H          29.5008    0.6674    0.0000 H       1  UNL1        0.0307
     83 H           8.4607    3.2250    0.0000 H       1  UNL1        0.0307
     84 H           7.6636    3.2250    0.0000 H       1  UNL1        0.0307
     85 H          27.5822    1.7750    0.0000 H       1  UNL1        0.0307
     86 H          28.3793    1.7750    0.0000 H       1  UNL1        0.0307
     87 H          10.2617    1.7750    0.0000 H       1  UNL1        0.0307
     88 H          11.0588    1.7750    0.0000 H       1  UNL1        0.0307
     89 H          24.0492    3.2250    0.0000 H       1  UNL1        0.0270
     90 H          23.2521    3.2250    0.0000 H       1  UNL1        0.0270
     91 H          15.3889    3.2250    0.0000 H       1  UNL1        0.0270
     92 H          14.5919    3.2250    0.0000 H       1  UNL1        0.0270
     93 H          31.7003   -3.1423    0.0000 H       1  UNL1        0.0263
     94 H          32.0988   -3.8326    0.0000 H       1  UNL1        0.0263
     95 H           3.2646    3.2250    0.0000 H       1  UNL1        0.0263
     96 H           2.4675    3.2250    0.0000 H       1  UNL1        0.0263
     97 H          30.2497    2.5600    0.0000 H       1  UNL1        0.0569
     98 H          28.8468    3.3700    0.0000 H       1  UNL1        0.0569
     99 H           8.9282    1.6300    0.0000 H       1  UNL1        0.0569
    100 H           9.7942    3.3700    0.0000 H       1  UNL1        0.0569
    101 H          22.3861    1.7750    0.0000 H       1  UNL1        0.0377
    102 H          23.1831    1.7750    0.0000 H       1  UNL1        0.0377
    103 H          15.4579    1.7750    0.0000 H       1  UNL1        0.0377
    104 H          16.2549    1.7750    0.0000 H       1  UNL1        0.0377
    105 H          32.8669   -4.2869    0.0000 H       1  UNL1        0.0230
    106 H          33.7138   -4.0600    0.0000 H       1  UNL1        0.0230
    107 H          33.4869   -3.2131    0.0000 H       1  UNL1        0.0230
    108 H           1.6900    2.7869    0.0000 H       1  UNL1        0.0230
    109 H           1.4631    1.9400    0.0000 H       1  UNL1        0.0230
    110 H           2.3100    1.7131    0.0000 H       1  UNL1        0.0230
    111 H          19.8574    1.9400    0.0000 H       1  UNL1        0.0662
    112 H          20.5851    3.2250    0.0000 H       1  UNL1        0.0725
    113 H          19.7880    3.2250    0.0000 H       1  UNL1        0.0725
    114 H          18.8530    3.2250    0.0000 H       1  UNL1        0.0725
    115 H          18.0560    3.2250    0.0000 H       1  UNL1        0.0725
    116 H          18.7836    0.9400    0.0000 H       1  UNL1        0.2101
@<TRIPOS>BOND
     1     1    40    1
     2     1    43    1
     3     2    41    1
     4     2    44    1
     5     3    40    2
     6     4    41    2
     7     5    42    1
     8     5   116    1
     9     6     8    1
    10     6    14    1
    11     6    45    1
    12     6    46    1
    13     7     9    1
    14     7    15    1
    15     7    47    1
    16     7    48    1
    17     8    16    1
    18     8    49    1
    19     8    50    1
    20     9    17    1
    21     9    51    1
    22     9    52    1
    23    10    12    1
    24    10    18    1
    25    10    53    1
    26    10    54    1
    27    11    13    1
    28    11    19    1
    29    11    55    1
    30    11    56    1
    31    12    20    1
    32    12    57    1
    33    12    58    1
    34    13    21    1
    35    13    59    1
    36    13    60    1
    37    14    22    1
    38    14    61    1
    39    14    62    1
    40    15    23    1
    41    15    63    1
    42    15    64    1
    43    16    24    1
    44    16    65    1
    45    16    66    1
    46    17    25    1
    47    17    67    1
    48    17    68    1
    49    18    26    1
    50    18    69    1
    51    18    70    1
    52    19    27    1
    53    19    71    1
    54    19    72    1
    55    20    28    1
    56    20    73    1
    57    20    74    1
    58    21    29    1
    59    21    75    1
    60    21    76    1
    61    22    30    1
    62    22    77    1
    63    22    78    1
    64    23    31    1
    65    23    79    1
    66    23    80    1
    67    24    32    1
    68    24    81    1
    69    24    82    1
    70    25    34    1
    71    25    83    1
    72    25    84    1
    73    26    33    1
    74    26    85    1
    75    26    86    1
    76    27    35    1
    77    27    87    1
    78    27    88    1
    79    28    36    1
    80    28    89    1
    81    28    90    1
    82    29    37    1
    83    29    91    1
    84    29    92    1
    85    30    38    1
    86    30    93    1
    87    30    94    1
    88    31    39    1
    89    31    95    1
    90    31    96    1
    91    32    33    2
    92    32    97    1
    93    33    98    1
    94    34    35    2
    95    34    99    1
    96    35   100    1
    97    36    40    1
    98    36   101    1
    99    36   102    1
   100    37    41    1
   101    37   103    1
   102    37   104    1
   103    38   105    1
   104    38   106    1
   105    38   107    1
   106    39   108    1
   107    39   109    1
   108    39   110    1
   109    42    43    1
   110    42    44    1
   111    42   111    1
   112    43   112    1
   113    43   113    1
   114    44   114    1
   115    44   115    1
