@<TRIPOS>MOLECULE
IMPHY008526
 75 79 0 0 0
SMALL
GASTEIGER

@<TRIPOS>ATOM
      1 O           6.8671   -3.3813    0.0000 O.3     1  UNL1       -0.3366
      2 O           5.1350   -1.3813    0.0000 O.3     1  UNL1       -0.3313
      3 O           6.0010   -4.8813    0.0000 O.3     1  UNL1       -0.3461
      4 O           6.8671   -1.3813    0.0000 O.3     1  UNL1       -0.4534
      5 O           5.1350   -4.3813    0.0000 O.3     1  UNL1       -0.3863
      6 O           3.4030   -3.3813    0.0000 O.3     1  UNL1       -0.3865
      7 O           8.5991   -4.3813    0.0000 O.3     1  UNL1       -0.3841
      8 O           8.5991   -6.3813    0.0000 O.3     1  UNL1       -0.3864
      9 O           6.8671   -7.3813    0.0000 O.3     1  UNL1       -0.3869
     10 O           2.5369   -1.8813    0.0000 O.3     1  UNL1       -0.3924
     11 O           5.1350   -0.3813    0.0000 O.3     1  UNL1       -0.4912
     12 O           8.5991   -0.3813    0.0000 O.3     1  UNL1       -0.5027
     13 O           6.8510    2.6602    0.0000 O.2     1  UNL1       -0.4544
     14 O           9.5033    1.1156    0.0000 O.2     1  UNL1       -0.2869
     15 O           7.7336    7.1880    0.0000 O.3     1  UNL1       -0.4951
     16 C           6.0010   -2.8813    0.0000 C.3     1  UNL1        0.1519
     17 C           5.1350   -3.3813    0.0000 C.3     1  UNL1        0.1155
     18 C           4.2690   -2.8813    0.0000 C.3     1  UNL1        0.1120
     19 C           4.2690   -1.8813    0.0000 C.3     1  UNL1        0.1140
     20 C           6.0010   -1.8813    0.0000 C.3     1  UNL1        0.2315
     21 C           6.8671   -4.3813    0.0000 C.3     1  UNL1        0.1882
     22 C           7.7331   -4.8813    0.0000 C.3     1  UNL1        0.1341
     23 C           7.7331   -5.8813    0.0000 C.3     1  UNL1        0.1137
     24 C           6.8671   -6.3813    0.0000 C.3     1  UNL1        0.1069
     25 C           3.4030   -1.3813    0.0000 C.3     1  UNL1        0.0731
     26 C           6.0010   -5.8813    0.0000 C.3     1  UNL1        0.0792
     27 C           6.8671   -0.3813    0.0000 C.ar    1  UNL1        0.2074
     28 C           7.7331    0.1187    0.0000 C.ar    1  UNL1        0.1769
     29 C           6.0010    0.1187    0.0000 C.ar    1  UNL1        0.1688
     30 C           7.7331    1.1187    0.0000 C.ar    1  UNL1        0.1091
     31 C           6.0010    1.1187    0.0000 C.ar    1  UNL1        0.0270
     32 C           6.8671    1.6187    0.0000 C.ar    1  UNL1        0.1465
     33 C           8.6431    1.6256    0.0000 C.ar    1  UNL1        0.1967
     34 C           7.7490    3.1880    0.0000 C.ar    1  UNL1        0.1392
     35 C           8.6511    2.6672    0.0000 C.ar    1  UNL1        0.0288
     36 C           4.2690    0.1187    0.0000 C.3     1  UNL1        0.0790
     37 C           7.7452    4.1880    0.0000 C.ar    1  UNL1        0.0176
     38 C           8.6093    4.6913    0.0000 C.ar    1  UNL1       -0.0476
     39 C           6.8772    4.6846    0.0000 C.ar    1  UNL1       -0.0476
     40 C           8.6054    5.6913    0.0000 C.ar    1  UNL1       -0.0193
     41 C           6.8734    5.6846    0.0000 C.ar    1  UNL1       -0.0193
     42 C           7.7375    6.1880    0.0000 C.ar    1  UNL1        0.1201
     43 C           8.5977    7.6913    0.0000 C.3     1  UNL1        0.0788
     44 H           6.0010   -3.5013    0.0000 H       1  UNL1        0.0687
     45 H           4.5981   -3.6913    0.0000 H       1  UNL1        0.0648
     46 H           3.7320   -2.5713    0.0000 H       1  UNL1        0.0647
     47 H           4.2690   -1.2613    0.0000 H       1  UNL1        0.0647
     48 H           6.0010   -1.2613    0.0000 H       1  UNL1        0.1084
     49 H           7.4040   -4.0713    0.0000 H       1  UNL1        0.0937
     50 H           8.2700   -5.1913    0.0000 H       1  UNL1        0.0671
     51 H           7.7331   -6.5013    0.0000 H       1  UNL1        0.0647
     52 H           6.3301   -6.6913    0.0000 H       1  UNL1        0.0643
     53 H           3.8015   -0.9063    0.0000 H       1  UNL1        0.0584
     54 H           3.0044   -0.9063    0.0000 H       1  UNL1        0.0584
     55 H           5.3905   -5.7736    0.0000 H       1  UNL1        0.0587
     56 H           5.7890   -6.4639    0.0000 H       1  UNL1        0.0587
     57 H           4.5981   -4.6913    0.0000 H       1  UNL1        0.2100
     58 H           3.4030   -4.0013    0.0000 H       1  UNL1        0.2100
     59 H           9.1360   -4.6913    0.0000 H       1  UNL1        0.2101
     60 H           8.5991   -7.0013    0.0000 H       1  UNL1        0.2100
     61 H           6.3301   -7.6913    0.0000 H       1  UNL1        0.2100
     62 H           2.0000   -1.5713    0.0000 H       1  UNL1        0.2095
     63 H           5.4641    1.4287    0.0000 H       1  UNL1        0.0692
     64 H           8.5991   -1.0013    0.0000 H       1  UNL1        0.2923
     65 H           9.1892    2.9751    0.0000 H       1  UNL1        0.0693
     66 H           4.5790    0.6557    0.0000 H       1  UNL1        0.0660
     67 H           3.7320    0.4287    0.0000 H       1  UNL1        0.0660
     68 H           3.9590   -0.4182    0.0000 H       1  UNL1        0.0660
     69 H           9.1474    4.3834    0.0000 H       1  UNL1        0.0626
     70 H           6.3415    4.3726    0.0000 H       1  UNL1        0.0626
     71 H           9.1412    6.0034    0.0000 H       1  UNL1        0.0654
     72 H           6.3353    5.9925    0.0000 H       1  UNL1        0.0654
     73 H           8.9098    7.1556    0.0000 H       1  UNL1        0.0660
     74 H           9.1334    8.0034    0.0000 H       1  UNL1        0.0660
     75 H           8.2856    8.2270    0.0000 H       1  UNL1        0.0660
@<TRIPOS>BOND
     1    16     1    1
     2    21     1    1
     3     2    19    1
     4     2    20    1
     5     3    21    1
     6     3    26    1
     7    20     4    1
     8     4    27    1
     9    17     5    1
    10     5    57    1
    11    18     6    1
    12     6    58    1
    13    22     7    1
    14     7    59    1
    15    23     8    1
    16     8    60    1
    17    24     9    1
    18     9    61    1
    19    10    25    1
    20    10    62    1
    21    11    29    1
    22    11    36    1
    23    12    28    1
    24    12    64    1
    25    13    32   ar
    26    13    34   ar
    27    14    33    2
    28    15    42    1
    29    15    43    1
    30    16    17    1
    31    16    20    1
    32    16    44    1
    33    17    18    1
    34    17    45    1
    35    18    19    1
    36    18    46    1
    37    19    25    1
    38    19    47    1
    39    20    48    1
    40    21    22    1
    41    21    49    1
    42    22    23    1
    43    22    50    1
    44    23    24    1
    45    23    51    1
    46    24    26    1
    47    24    52    1
    48    25    53    1
    49    25    54    1
    50    26    55    1
    51    26    56    1
    52    27    28   ar
    53    27    29   ar
    54    28    30   ar
    55    29    31   ar
    56    30    32   ar
    57    30    33   ar
    58    31    32   ar
    59    31    63    1
    60    33    35   ar
    61    34    35   ar
    62    34    37    1
    63    35    65    1
    64    36    66    1
    65    36    67    1
    66    36    68    1
    67    37    38   ar
    68    37    39   ar
    69    38    40   ar
    70    38    69    1
    71    39    41   ar
    72    39    70    1
    73    40    42   ar
    74    40    71    1
    75    41    42   ar
    76    41    72    1
    77    43    73    1
    78    43    74    1
    79    43    75    1
