@<TRIPOS>MOLECULE
IMPHY010600
 40 43 0 0 0
SMALL
GASTEIGER

@<TRIPOS>ATOM
      1 N           6.6882   -0.5205    0.0000 N.3     1  UNL1       -0.2942
      2 N           3.2922   -0.4605    0.0000 N.ar    1  UNL1       -0.3541
      3 C           6.9470    0.4454    0.0000 C.3     1  UNL1        0.0089
      4 C           8.3460   -0.0634    0.0000 C.3     1  UNL1       -0.0295
      5 C           8.0872   -1.0294    0.0000 C.3     1  UNL1        0.0004
      6 C           5.7104    1.2940    0.0000 C.3     1  UNL1        0.0209
      7 C           6.5764    1.7940    0.0000 C.2     1  UNL1       -0.0523
      8 C           5.6124   -1.5366    0.0000 C.3     1  UNL1        0.0269
      9 C           4.9284    0.3428    0.0000 C.2     1  UNL1       -0.0237
     10 C           4.6276   -1.3629    0.0000 C.ar    1  UNL1       -0.0007
     11 C           4.2856   -0.4232    0.0000 C.ar    1  UNL1        0.0479
     12 C           3.8427   -1.9729    0.0000 C.ar    1  UNL1        0.0047
     13 C           3.0190   -1.4163    0.0000 C.ar    1  UNL1        0.0472
     14 C           6.8353    2.7600    0.0000 C.2     1  UNL1       -0.0861
     15 C           4.5864    1.2825    0.0000 C.2     1  UNL1       -0.0930
     16 C           3.7855   -3.0068    0.0000 C.ar    1  UNL1       -0.0523
     17 C           2.0811   -1.8550    0.0000 C.ar    1  UNL1       -0.0378
     18 C           6.1282    3.4671    0.0000 C.3     1  UNL1       -0.0465
     19 C           2.8579   -3.4671    0.0000 C.ar    1  UNL1       -0.0611
     20 C           2.0000   -2.8873    0.0000 C.ar    1  UNL1       -0.0598
     21 H           7.4028    0.8658    0.0000 H       1  UNL1        0.0395
     22 H           8.9399   -0.2412    0.0000 H       1  UNL1        0.0286
     23 H           8.5409    0.5251    0.0000 H       1  UNL1        0.0286
     24 H           7.8922   -1.6179    0.0000 H       1  UNL1        0.0427
     25 H           8.6811   -1.2071    0.0000 H       1  UNL1        0.0427
     26 H           5.4057    1.8340    0.0000 H       1  UNL1        0.0473
     27 H           5.1675    0.9946    0.0000 H       1  UNL1        0.0473
     28 H           5.3780   -2.1106    0.0000 H       1  UNL1        0.0477
     29 H           6.1238   -1.8871    0.0000 H       1  UNL1        0.0477
     30 H           2.9096    0.0274    0.0000 H       1  UNL1        0.1659
     31 H           7.4341    2.9204    0.0000 H       1  UNL1        0.0569
     32 H           4.9849    1.7574    0.0000 H       1  UNL1        0.0538
     33 H           3.9758    1.3902    0.0000 H       1  UNL1        0.0538
     34 H           4.3032   -3.3480    0.0000 H       1  UNL1        0.0624
     35 H           1.5714   -1.5020    0.0000 H       1  UNL1        0.0638
     36 H           6.5666    3.9055    0.0000 H       1  UNL1        0.0272
     37 H           5.6897    3.9055    0.0000 H       1  UNL1        0.0272
     38 H           5.6897    3.0287    0.0000 H       1  UNL1        0.0272
     39 H           2.8165   -4.0857    0.0000 H       1  UNL1        0.0618
     40 H           1.4415   -3.1565    0.0000 H       1  UNL1        0.0618
@<TRIPOS>BOND
     1     1     5    1
     2     1     6    1
     3     1     8    1
     4     2    11   ar
     5     2    13   ar
     6     2    30    1
     7     3     4    1
     8     3     7    1
     9     3     9    1
    10     3    21    1
    11     4     5    1
    12     4    22    1
    13     4    23    1
    14     5    24    1
    15     5    25    1
    16     6     7    1
    17     6    26    1
    18     6    27    1
    19     7    14    2
    20     8    10    1
    21     8    28    1
    22     8    29    1
    23     9    11    1
    24     9    15    2
    25    10    11   ar
    26    10    12   ar
    27    12    13   ar
    28    12    16   ar
    29    13    17   ar
    30    14    18    1
    31    14    31    1
    32    15    32    1
    33    15    33    1
    34    16    19   ar
    35    16    34    1
    36    17    20   ar
    37    17    35    1
    38    18    36    1
    39    18    37    1
    40    18    38    1
    41    19    20   ar
    42    19    39    1
    43    20    40    1
