@<TRIPOS>MOLECULE
IMPHY009801
 94 99 0 0 0
SMALL
GASTEIGER

@<TRIPOS>ATOM
      1 O           6.3301   -5.1913    0.0000 O.3     1  UNL1       -0.3366
      2 O           4.5981   -3.1913    0.0000 O.3     1  UNL1       -0.3313
      3 O           7.1961   -3.6913    0.0000 O.3     1  UNL1       -0.3405
      4 O           6.3301   -3.1913    0.0000 O.3     1  UNL1       -0.4514
      5 O           4.5981   -6.1913    0.0000 O.3     1  UNL1       -0.3863
      6 O           2.8660   -5.1913    0.0000 O.3     1  UNL1       -0.3865
      7 O           8.0622   -6.1913    0.0000 O.3     1  UNL1       -0.3841
      8 O           9.7942   -5.1913    0.0000 O.3     1  UNL1       -0.3864
      9 O           9.7942   -3.1913    0.0000 O.3     1  UNL1       -0.3865
     10 O           8.0685    3.8813    0.0000 O.3     1  UNL1       -0.3313
     11 O           2.8660   -2.1913    0.0000 O.3     1  UNL1       -0.3924
     12 O           8.9282   -1.6913    0.0000 O.3     1  UNL1       -0.3924
     13 O           7.2082    2.3780    0.0000 O.3     1  UNL1       -0.4604
     14 O          10.6723    2.3913    0.0000 O.3     1  UNL1       -0.3864
     15 O          10.6646    4.3913    0.0000 O.3     1  UNL1       -0.3865
     16 O           8.9441    1.3847    0.0000 O.3     1  UNL1       -0.3829
     17 O           5.4641   -0.6913    0.0000 O.2     1  UNL1       -0.1997
     18 O           8.0608    5.8813    0.0000 O.3     1  UNL1       -0.3924
     19 O           8.9663   -0.6944    0.0000 O.3     1  UNL1       -0.5057
     20 O           2.0000    0.3088    0.0000 O.3     1  UNL1       -0.5068
     21 C           5.4641   -4.6913    0.0000 C.3     1  UNL1        0.1519
     22 C           4.5981   -5.1913    0.0000 C.3     1  UNL1        0.1155
     23 C           3.7320   -4.6913    0.0000 C.3     1  UNL1        0.1120
     24 C           7.1961   -4.6913    0.0000 C.3     1  UNL1        0.1886
     25 C           8.0622   -5.1913    0.0000 C.3     1  UNL1        0.1341
     26 C           5.4641   -3.6913    0.0000 C.3     1  UNL1        0.2316
     27 C           3.7320   -3.6913    0.0000 C.3     1  UNL1        0.1140
     28 C           8.9282   -4.6913    0.0000 C.3     1  UNL1        0.1141
     29 C           8.9282   -3.6913    0.0000 C.3     1  UNL1        0.1119
     30 C           8.0622   -3.1913    0.0000 C.3     1  UNL1        0.1130
     31 C           2.8660   -3.1913    0.0000 C.3     1  UNL1        0.0731
     32 C           8.0622   -2.1913    0.0000 C.3     1  UNL1        0.0730
     33 C           9.8044    2.8880    0.0000 C.3     1  UNL1        0.1152
     34 C           9.8005    3.8880    0.0000 C.3     1  UNL1        0.1120
     35 C           8.9403    2.3846    0.0000 C.3     1  UNL1        0.1454
     36 C           8.9326    4.3846    0.0000 C.3     1  UNL1        0.1140
     37 C           8.0723    2.8813    0.0000 C.3     1  UNL1        0.2308
     38 C           6.3301   -2.1913    0.0000 C.ar    1  UNL1        0.2288
     39 C           8.9287    5.3846    0.0000 C.3     1  UNL1        0.0731
     40 C           5.4641   -1.6913    0.0000 C.ar    1  UNL1        0.4045
     41 C           7.1961   -1.6913    0.0000 C.ar    1  UNL1        0.0093
     42 C           7.1961   -0.6913    0.0000 C.ar    1  UNL1        0.1241
     43 C           7.2121    1.3780    0.0000 C.ar    1  UNL1        0.1364
     44 C           6.3301   -0.1913    0.0000 C.ar    1  UNL1        0.3708
     45 C           6.3140    0.8502    0.0000 C.ar    1  UNL1        0.0851
     46 C           8.1061   -0.1844    0.0000 C.ar    1  UNL1        0.1366
     47 C           4.5981   -1.1912    0.0000 C.ar    1  UNL1        0.0830
     48 C           8.1142    0.8572    0.0000 C.ar    1  UNL1        0.0229
     49 C           4.5981   -0.1912    0.0000 C.ar    1  UNL1       -0.0420
     50 C           3.7320   -1.6913    0.0000 C.ar    1  UNL1       -0.0420
     51 C           3.7321    0.3088    0.0000 C.ar    1  UNL1       -0.0193
     52 C           2.8660   -1.1913    0.0000 C.ar    1  UNL1       -0.0193
     53 C           2.8660   -0.1912    0.0000 C.ar    1  UNL1        0.1169
     54 H           5.4641   -5.3113    0.0000 H       1  UNL1        0.0687
     55 H           4.0611   -5.5013    0.0000 H       1  UNL1        0.0648
     56 H           3.1951   -4.3813    0.0000 H       1  UNL1        0.0647
     57 H           7.1961   -5.3113    0.0000 H       1  UNL1        0.0938
     58 H           8.5991   -5.5013    0.0000 H       1  UNL1        0.0671
     59 H           5.4641   -3.0713    0.0000 H       1  UNL1        0.1084
     60 H           3.7320   -3.0713    0.0000 H       1  UNL1        0.0647
     61 H           9.4651   -4.3813    0.0000 H       1  UNL1        0.0648
     62 H           9.4651   -4.0013    0.0000 H       1  UNL1        0.0647
     63 H           7.5252   -2.8813    0.0000 H       1  UNL1        0.0647
     64 H           2.2554   -3.0836    0.0000 H       1  UNL1        0.0584
     65 H           2.6540   -3.7739    0.0000 H       1  UNL1        0.0584
     66 H           7.8501   -1.6087    0.0000 H       1  UNL1        0.0584
     67 H           7.4516   -2.2989    0.0000 H       1  UNL1        0.0584
     68 H           4.0611   -6.5013    0.0000 H       1  UNL1        0.2100
     69 H          10.3401    3.2000    0.0000 H       1  UNL1        0.0648
     70 H           9.7981    4.5080    0.0000 H       1  UNL1        0.0647
     71 H           8.4045    2.0726    0.0000 H       1  UNL1        0.0683
     72 H           2.8660   -5.8113    0.0000 H       1  UNL1        0.2100
     73 H           8.3944    4.6926    0.0000 H       1  UNL1        0.0647
     74 H           8.5991   -6.5013    0.0000 H       1  UNL1        0.2101
     75 H           7.5342    3.1892    0.0000 H       1  UNL1        0.1084
     76 H           9.7942   -5.8113    0.0000 H       1  UNL1        0.2100
     77 H          10.3311   -3.5013    0.0000 H       1  UNL1        0.2100
     78 H           9.5397    5.2793    0.0000 H       1  UNL1        0.0584
     79 H           9.1385    5.9680    0.0000 H       1  UNL1        0.0584
     80 H           2.3291   -1.8813    0.0000 H       1  UNL1        0.2095
     81 H           9.4651   -2.0013    0.0000 H       1  UNL1        0.2095
     82 H           7.7331   -2.0013    0.0000 H       1  UNL1        0.0667
     83 H          11.2080    2.7034    0.0000 H       1  UNL1        0.2100
     84 H          10.6622    5.0113    0.0000 H       1  UNL1        0.2100
     85 H           9.4822    1.0767    0.0000 H       1  UNL1        0.2102
     86 H           5.7736    1.1540    0.0000 H       1  UNL1        0.0749
     87 H           8.6523    1.1651    0.0000 H       1  UNL1        0.0691
     88 H           8.0584    6.5013    0.0000 H       1  UNL1        0.2095
     89 H           5.1351    0.1188    0.0000 H       1  UNL1        0.0628
     90 H           3.7320   -2.3113    0.0000 H       1  UNL1        0.0628
     91 H           9.5068   -0.3906    0.0000 H       1  UNL1        0.2922
     92 H           3.7321    0.9288    0.0000 H       1  UNL1        0.0654
     93 H           2.3291   -1.5013    0.0000 H       1  UNL1        0.0654
     94 H           2.0000    0.9288    0.0000 H       1  UNL1        0.2921
@<TRIPOS>UNITY_ATOM_ATTR
17 1
charge 1
@<TRIPOS>BOND
     1     1    21    1
     2    24     1    1
     3     2    26    1
     4     2    27    1
     5     3    24    1
     6     3    30    1
     7    26     4    1
     8     4    38    1
     9     5    22    1
    10     5    68    1
    11    23     6    1
    12     6    72    1
    13    25     7    1
    14     7    74    1
    15     8    28    1
    16     8    76    1
    17    29     9    1
    18     9    77    1
    19    10    36    1
    20    10    37    1
    21    11    31    1
    22    11    80    1
    23    12    32    1
    24    12    81    1
    25    37    13    1
    26    13    43    1
    27    33    14    1
    28    14    83    1
    29    34    15    1
    30    15    84    1
    31    16    35    1
    32    16    85    1
    33    17    40   ar
    34    17    44   ar
    35    18    39    1
    36    18    88    1
    37    19    46    1
    38    19    91    1
    39    20    53    1
    40    20    94    1
    41    21    22    1
    42    21    26    1
    43    21    54    1
    44    22    23    1
    45    22    55    1
    46    23    27    1
    47    23    56    1
    48    24    25    1
    49    24    57    1
    50    25    28    1
    51    25    58    1
    52    26    59    1
    53    27    31    1
    54    27    60    1
    55    28    29    1
    56    28    61    1
    57    29    30    1
    58    29    62    1
    59    30    32    1
    60    30    63    1
    61    31    64    1
    62    31    65    1
    63    32    66    1
    64    32    67    1
    65    33    34    1
    66    33    35    1
    67    33    69    1
    68    34    36    1
    69    34    70    1
    70    35    37    1
    71    35    71    1
    72    36    39    1
    73    36    73    1
    74    37    75    1
    75    38    40   ar
    76    38    41   ar
    77    39    78    1
    78    39    79    1
    79    40    47    1
    80    41    42   ar
    81    41    82    1
    82    42    44   ar
    83    42    46   ar
    84    43    45   ar
    85    43    48   ar
    86    44    45   ar
    87    45    86    1
    88    46    48   ar
    89    47    49   ar
    90    47    50   ar
    91    48    87    1
    92    49    51   ar
    93    49    89    1
    94    50    52   ar
    95    50    90    1
    96    51    53   ar
    97    51    92    1
    98    52    53   ar
    99    52    93    1
