@<TRIPOS>MOLECULE
IMPHY008900
 68 73 0 0 0
SMALL
GASTEIGER

@<TRIPOS>ATOM
      1 O           7.3183    0.8855    0.0000 O.3     1  UNL1       -0.4538
      2 O           6.5251   -2.7536    0.0000 O.3     1  UNL1       -0.3872
      3 O           5.4772    0.5428    0.0000 O.2     1  UNL1       -0.2501
      4 O           8.1480    2.1294    0.0000 O.3     1  UNL1       -0.4537
      5 O           2.9755   -0.6965    0.0000 O.2     1  UNL1       -0.2961
      6 O           8.3305    3.8518    0.0000 O.2     1  UNL1       -0.2453
      7 C           6.5251   -0.7536    0.0000 C.3     1  UNL1        0.1030
      8 C           6.5251   -1.7536    0.0000 C.3     1  UNL1        0.0855
      9 C           7.4714   -0.4489    0.0000 C.3     1  UNL1        0.0208
     10 C           5.6591   -2.2536    0.0000 C.3     1  UNL1       -0.0036
     11 C           4.7931   -1.7536    0.0000 C.3     1  UNL1       -0.0191
     12 C           7.4714   -2.0583    0.0000 C.3     1  UNL1       -0.0222
     13 C           5.6591   -0.2536    0.0000 C.3     1  UNL1       -0.0338
     14 C           8.0550   -1.2536    0.0000 C.3     1  UNL1       -0.0427
     15 C           7.9654    0.4069    0.0000 C.3     1  UNL1        0.1514
     16 C           4.7931   -0.7536    0.0000 C.3     1  UNL1       -0.0476
     17 C           6.4270    0.2297    0.0000 C.2     1  UNL1        0.3172
     18 C           3.8831   -2.2604    0.0000 C.3     1  UNL1        0.0542
     19 C           5.6752   -3.2951    0.0000 C.3     1  UNL1       -0.0284
     20 C           8.5539    1.2154    0.0000 C.3     1  UNL1        0.1465
     21 C           8.9162    0.0971    0.0000 C.3     1  UNL1       -0.0210
     22 C           3.8751   -3.3020    0.0000 C.2     1  UNL1       -0.0382
     23 C           4.7771   -3.8228    0.0000 C.2     1  UNL1       -0.0795
     24 C           3.8908   -1.2605    0.0000 C.3     1  UNL1       -0.0485
     25 C           2.9562   -1.6964    0.0000 C.2     1  UNL1        0.1474
     26 C           9.5484    1.1101    0.0000 C.3     1  UNL1        0.0099
     27 C           2.9396   -3.8518    0.0000 C.2     1  UNL1       -0.0615
     28 C           2.0084   -2.2243    0.0000 C.3     1  UNL1        0.0252
     29 C           2.0000   -3.3093    0.0000 C.2     1  UNL1       -0.0766
     30 C          10.1369    1.9186    0.0000 C.2     1  UNL1       -0.0593
     31 C           8.7365    2.9379    0.0000 C.2     1  UNL1        0.3352
     32 C           9.7309    2.8325    0.0000 C.2     1  UNL1        0.0326
     33 C          11.1313    1.8132    0.0000 C.3     1  UNL1       -0.0429
     34 C          10.3194    3.6410    0.0000 C.3     1  UNL1       -0.0330
     35 H           8.3202   -0.4047    0.0000 H       1  UNL1        0.0352
     36 H           6.3985   -2.6729    0.0000 H       1  UNL1        0.0335
     37 H           5.5292   -1.3286    0.0000 H       1  UNL1        0.0317
     38 H           7.2203   -2.6252    0.0000 H       1  UNL1        0.0293
     39 H           8.0087   -2.3675    0.0000 H       1  UNL1        0.0293
     40 H           6.0576    0.2214    0.0000 H       1  UNL1        0.0277
     41 H           5.2606    0.2214    0.0000 H       1  UNL1        0.0277
     42 H           8.5158   -1.6683    0.0000 H       1  UNL1        0.0270
     43 H           8.5158   -0.8389    0.0000 H       1  UNL1        0.0270
     44 H           4.5810   -0.1710    0.0000 H       1  UNL1        0.0269
     45 H           4.1825   -0.8612    0.0000 H       1  UNL1        0.0269
     46 H           5.8932   -3.8755    0.0000 H       1  UNL1        0.0311
     47 H           6.2843   -3.1796    0.0000 H       1  UNL1        0.0311
     48 H           7.7087    1.3050    0.0000 H       1  UNL1        0.0778
     49 H           7.0621   -3.0636    0.0000 H       1  UNL1        0.2102
     50 H           8.7241   -0.4924    0.0000 H       1  UNL1        0.0269
     51 H           9.5057   -0.0950    0.0000 H       1  UNL1        0.0269
     52 H           9.1083    0.6866    0.0000 H       1  UNL1        0.0269
     53 H           4.7795   -4.4428    0.0000 H       1  UNL1        0.0575
     54 H           4.5108   -1.2652    0.0000 H       1  UNL1        0.0242
     55 H           3.8956   -0.6405    0.0000 H       1  UNL1        0.0242
     56 H           3.2708   -1.2557    0.0000 H       1  UNL1        0.0242
     57 H           9.3770    0.5142    0.0000 H       1  UNL1        0.0347
     58 H          10.1054    0.8378    0.0000 H       1  UNL1        0.0347
     59 H           2.9420   -4.4718    0.0000 H       1  UNL1        0.0617
     60 H           1.8038   -1.6390    0.0000 H       1  UNL1        0.0384
     61 H           1.3967   -2.3257    0.0000 H       1  UNL1        0.0384
     62 H           1.4619   -3.6172    0.0000 H       1  UNL1        0.0576
     63 H          11.0659    1.1966    0.0000 H       1  UNL1        0.0275
     64 H          11.7478    1.7478    0.0000 H       1  UNL1        0.0275
     65 H          11.1966    2.4297    0.0000 H       1  UNL1        0.0275
     66 H          10.8207    3.2761    0.0000 H       1  UNL1        0.0280
     67 H          10.6843    4.1422    0.0000 H       1  UNL1        0.0280
     68 H           9.8181    4.0058    0.0000 H       1  UNL1        0.0280
@<TRIPOS>BOND
     1     1    15    1
     2     1    17    1
     3     8     2    1
     4     2    49    1
     5     3    17    2
     6     4    20    1
     7     4    31    1
     8     5    25    2
     9     6    31    2
    10     7     8    1
    11     7     9    1
    12     7    13    1
    13     7    17    1
    14     8    10    1
    15     8    12    1
    16     9    14    1
    17     9    15    1
    18     9    35    1
    19    10    11    1
    20    10    19    1
    21    10    36    1
    22    11    16    1
    23    11    18    1
    24    11    37    1
    25    12    14    1
    26    12    38    1
    27    12    39    1
    28    13    16    1
    29    13    40    1
    30    13    41    1
    31    14    42    1
    32    14    43    1
    33    15    20    1
    34    15    21    1
    35    16    44    1
    36    16    45    1
    37    18    22    1
    38    18    24    1
    39    18    25    1
    40    19    23    1
    41    19    46    1
    42    19    47    1
    43    20    26    1
    44    20    48    1
    45    21    50    1
    46    21    51    1
    47    21    52    1
    48    22    23    2
    49    22    27    1
    50    23    53    1
    51    24    54    1
    52    24    55    1
    53    24    56    1
    54    25    28    1
    55    26    30    1
    56    26    57    1
    57    26    58    1
    58    27    29    2
    59    27    59    1
    60    28    29    1
    61    28    60    1
    62    28    61    1
    63    29    62    1
    64    30    32    2
    65    30    33    1
    66    31    32    1
    67    32    34    1
    68    33    63    1
    69    33    64    1
    70    33    65    1
    71    34    66    1
    72    34    67    1
    73    34    68    1
