@<TRIPOS>MOLECULE
IMPHY016585
 44 46 0 0 0
SMALL
GASTEIGER

@<TRIPOS>ATOM
      1 C           3.8706    0.7827    0.0000 C.3     1  UNL1       -0.0349
      2 C           4.7944    0.4000    0.0000 C.3     1  UNL1       -0.0349
      3 C           3.4809   -0.1473    0.0000 C.3     1  UNL1       -0.0349
      4 C           4.4124   -0.5331    0.0000 C.3     1  UNL1       -0.0349
      5 C           3.4879    1.7066    0.0000 C.3     1  UNL1       -0.0497
      6 C           5.7183    0.7827    0.0000 C.3     1  UNL1       -0.0497
      7 C           2.4440   -0.5425    0.0000 C.3     1  UNL1       -0.0497
      8 C           4.8661   -1.5457    0.0000 C.3     1  UNL1       -0.0497
      9 C           3.8706    2.6304    0.0000 C.3     1  UNL1       -0.0528
     10 C           6.1010    1.7066    0.0000 C.3     1  UNL1       -0.0528
     11 C           2.0000   -1.5594    0.0000 C.3     1  UNL1       -0.0528
     12 C           4.4610   -2.5788    0.0000 C.3     1  UNL1       -0.0528
     13 C           4.7944    3.0131    0.0000 C.3     1  UNL1       -0.0530
     14 C           5.7183    2.6304    0.0000 C.3     1  UNL1       -0.0530
     15 C           2.4149   -2.5885    0.0000 C.3     1  UNL1       -0.0530
     16 C           3.4400   -3.0131    0.0000 C.3     1  UNL1       -0.0530
     17 H           4.3090    1.2211    0.0000 H       1  UNL1        0.0306
     18 H           5.2337   -0.0375    0.0000 H       1  UNL1        0.0306
     19 H           3.0497    0.2982    0.0000 H       1  UNL1        0.0306
     20 H           5.0323   -0.5230    0.0000 H       1  UNL1        0.0306
     21 H           2.9960    2.0840    0.0000 H       1  UNL1        0.0268
     22 H           2.9960    1.3291    0.0000 H       1  UNL1        0.0268
     23 H           5.7992    0.1680    0.0000 H       1  UNL1        0.0268
     24 H           6.3330    0.7017    0.0000 H       1  UNL1        0.0268
     25 H           2.3787    0.0741    0.0000 H       1  UNL1        0.0268
     26 H           1.8313   -0.4479    0.0000 H       1  UNL1        0.0268
     27 H           5.3662   -1.9122    0.0000 H       1  UNL1        0.0268
     28 H           5.3482   -1.1560    0.0000 H       1  UNL1        0.0268
     29 H           3.7896    3.2451    0.0000 H       1  UNL1        0.0265
     30 H           3.2558    2.7114    0.0000 H       1  UNL1        0.0265
     31 H           6.5929    1.3291    0.0000 H       1  UNL1        0.0265
     32 H           6.5929    2.0840    0.0000 H       1  UNL1        0.0265
     33 H           1.5142   -1.1742    0.0000 H       1  UNL1        0.0265
     34 H           1.5034   -1.9305    0.0000 H       1  UNL1        0.0265
     35 H           4.5498   -3.1924    0.0000 H       1  UNL1        0.0265
     36 H           5.0769   -2.6499    0.0000 H       1  UNL1        0.0265
     37 H           5.1719    3.5050    0.0000 H       1  UNL1        0.0265
     38 H           4.4170    3.5050    0.0000 H       1  UNL1        0.0265
     39 H           6.3330    2.7114    0.0000 H       1  UNL1        0.0265
     40 H           5.7992    3.2451    0.0000 H       1  UNL1        0.0265
     41 H           1.7997   -2.6655    0.0000 H       1  UNL1        0.0265
     42 H           2.3320   -3.2029    0.0000 H       1  UNL1        0.0265
     43 H           3.0641   -3.5062    0.0000 H       1  UNL1        0.0265
     44 H           3.8205   -3.5026    0.0000 H       1  UNL1        0.0265
@<TRIPOS>BOND
     1     1     2    1
     2     1     3    1
     3     1     5    1
     4     1    17    1
     5     2     4    1
     6     2     6    1
     7     2    18    1
     8     3     4    1
     9     3     7    1
    10     3    19    1
    11     4     8    1
    12     4    20    1
    13     5     9    1
    14     5    21    1
    15     5    22    1
    16     6    10    1
    17     6    23    1
    18     6    24    1
    19     7    11    1
    20     7    25    1
    21     7    26    1
    22     8    12    1
    23     8    27    1
    24     8    28    1
    25     9    13    1
    26     9    29    1
    27     9    30    1
    28    10    14    1
    29    10    31    1
    30    10    32    1
    31    11    15    1
    32    11    33    1
    33    11    34    1
    34    12    16    1
    35    12    35    1
    36    12    36    1
    37    13    14    1
    38    13    37    1
    39    13    38    1
    40    14    39    1
    41    14    40    1
    42    15    16    1
    43    15    41    1
    44    15    42    1
    45    16    43    1
    46    16    44    1
