@<TRIPOS>MOLECULE
IMPHY006350
 20 22 0 0 0
SMALL
GASTEIGER

@<TRIPOS>ATOM
      1 O           7.3424    0.8047    0.0000 O.2     1  UNL1       -0.4628
      2 O           3.7702    1.0347    0.0000 O.2     1  UNL1       -0.4220
      3 O           2.0000    1.0241    0.0000 O.2     1  UNL1       -0.2452
      4 C           6.3961   -0.5000    0.0000 C.ar    1  UNL1        0.0209
      5 C           4.6641   -0.5000    0.0000 C.ar    1  UNL1        0.0184
      6 C           6.3961    0.5000    0.0000 C.ar    1  UNL1        0.1383
      7 C           4.6641    0.5000    0.0000 C.ar    1  UNL1        0.1426
      8 C           5.5301   -1.0000    0.0000 C.ar    1  UNL1       -0.0403
      9 C           5.5301    1.0000    0.0000 C.ar    1  UNL1        0.0243
     10 C           7.3424   -0.8047    0.0000 C.ar    1  UNL1       -0.0161
     11 C           3.7702   -1.0347    0.0000 C.ar    1  UNL1       -0.0443
     12 C           7.9260    0.0000    0.0000 C.ar    1  UNL1        0.0931
     13 C           2.8641   -0.5208    0.0000 C.ar    1  UNL1        0.0236
     14 C           2.8641    0.5208    0.0000 C.ar    1  UNL1        0.3372
     15 H           5.5301   -1.6200    0.0000 H       1  UNL1        0.0632
     16 H           5.5301    1.6200    0.0000 H       1  UNL1        0.0692
     17 H           7.5350   -1.3940    0.0000 H       1  UNL1        0.0655
     18 H           3.7773   -1.6546    0.0000 H       1  UNL1        0.0627
     19 H           8.5460    0.0000    0.0000 H       1  UNL1        0.1029
     20 H           2.3284   -0.8329    0.0000 H       1  UNL1        0.0689
@<TRIPOS>BOND
     1     1     6   ar
     2     1    12   ar
     3     2     7   ar
     4     2    14   ar
     5     3    14    2
     6     4     6   ar
     7     4     8   ar
     8     4    10   ar
     9     5     7   ar
    10     5     8   ar
    11     5    11   ar
    12     6     9   ar
    13     7     9   ar
    14     8    15    1
    15     9    16    1
    16    10    12   ar
    17    10    17    1
    18    11    13   ar
    19    11    18    1
    20    12    19    1
    21    13    14   ar
    22    13    20    1
