@<TRIPOS>MOLECULE
IMPHY004286
 39 41 0 0 0
SMALL
GASTEIGER

@<TRIPOS>ATOM
      1 C           3.1621    0.0729    0.0000 C.3     1  UNL1       -0.0257
      2 C           3.9985   -0.3299    0.0000 C.3     1  UNL1       -0.0281
      3 C           4.8348    0.0729    0.0000 C.3     1  UNL1       -0.0079
      4 C           3.1514   -0.7888    0.0000 C.3     1  UNL1       -0.0160
      5 C           2.9556    0.9779    0.0000 C.3     1  UNL1       -0.0312
      6 C           4.4917   -1.2993    0.0000 C.3     1  UNL1       -0.0486
      7 C           4.8535   -0.7888    0.0000 C.2     1  UNL1       -0.0671
      8 C           3.6195   -1.7036    0.0000 C.3     1  UNL1       -0.0459
      9 C           5.0414    0.9779    0.0000 C.3     1  UNL1       -0.0436
     10 C           3.5344    1.7036    0.0000 C.3     1  UNL1       -0.0476
     11 C           4.4626    1.7036    0.0000 C.3     1  UNL1       -0.0518
     12 C           5.8297   -0.0283    0.0000 C.3     1  UNL1       -0.0556
     13 C           2.1294    1.5412    0.0000 C.3     1  UNL1       -0.0595
     14 C           2.0000    0.6832    0.0000 C.3     1  UNL1       -0.0595
     15 C           5.8471   -0.9017    0.0000 C.2     1  UNL1       -0.0986
     16 H           2.5456    0.0073    0.0000 H       1  UNL1        0.0315
     17 H           4.5859   -0.5282    0.0000 H       1  UNL1        0.0312
     18 H           2.5478   -0.9303    0.0000 H       1  UNL1        0.0349
     19 H           4.7593   -1.8586    0.0000 H       1  UNL1        0.0268
     20 H           5.0477   -1.0249    0.0000 H       1  UNL1        0.0268
     21 H           3.0639   -1.9788    0.0000 H       1  UNL1        0.0271
     22 H           3.8874   -2.2626    0.0000 H       1  UNL1        0.0271
     23 H           5.6000    0.7089    0.0000 H       1  UNL1        0.0274
     24 H           5.4279    1.4626    0.0000 H       1  UNL1        0.0274
     25 H           3.6723    2.3080    0.0000 H       1  UNL1        0.0271
     26 H           2.9758    1.9726    0.0000 H       1  UNL1        0.0271
     27 H           5.0212    1.9726    0.0000 H       1  UNL1        0.0266
     28 H           4.3246    2.3080    0.0000 H       1  UNL1        0.0266
     29 H           5.7669   -0.6451    0.0000 H       1  UNL1        0.0238
     30 H           6.4465   -0.0911    0.0000 H       1  UNL1        0.0238
     31 H           5.8924    0.5885    0.0000 H       1  UNL1        0.0238
     32 H           2.4787    2.0535    0.0000 H       1  UNL1        0.0235
     33 H           1.6172    1.8905    0.0000 H       1  UNL1        0.0235
     34 H           1.7801    1.0290    0.0000 H       1  UNL1        0.0235
     35 H           1.8173    1.2756    0.0000 H       1  UNL1        0.0235
     36 H           1.4075    0.5005    0.0000 H       1  UNL1        0.0235
     37 H           2.1827    0.0907    0.0000 H       1  UNL1        0.0235
     38 H           6.0945   -1.4702    0.0000 H       1  UNL1        0.0535
     39 H           6.2157   -0.4032    0.0000 H       1  UNL1        0.0535
@<TRIPOS>BOND
     1     1     2    1
     2     1     4    1
     3     1     5    1
     4     1    16    1
     5     2     3    1
     6     2     6    1
     7     2    17    1
     8     3     7    1
     9     3     9    1
    10     3    12    1
    11     4     7    1
    12     4     8    1
    13     4    18    1
    14     5    10    1
    15     5    13    1
    16     5    14    1
    17     6     8    1
    18     6    19    1
    19     6    20    1
    20     7    15    2
    21     8    21    1
    22     8    22    1
    23     9    11    1
    24     9    23    1
    25     9    24    1
    26    10    11    1
    27    10    25    1
    28    10    26    1
    29    11    27    1
    30    11    28    1
    31    12    29    1
    32    12    30    1
    33    12    31    1
    34    13    32    1
    35    13    33    1
    36    13    34    1
    37    14    35    1
    38    14    36    1
    39    14    37    1
    40    15    38    1
    41    15    39    1
