@<TRIPOS>MOLECULE
IMPHY010880
 93 101 0 0 0
SMALL
GASTEIGER

@<TRIPOS>ATOM
      1 O           8.6823    1.9841    0.0000 O.3     1  UNL1       -0.3385
      2 O           8.6663   -1.0851    0.0000 O.3     1  UNL1       -0.4501
      3 O          10.4365   -0.0883    0.0000 O.3     1  UNL1       -0.4512
      4 O           6.9343   -0.0851    0.0000 O.3     1  UNL1       -0.4488
      5 O           6.9125    1.9463    0.0000 O.3     1  UNL1       -0.3641
      6 O          10.4562    2.9600    0.0000 O.3     1  UNL1       -0.3923
      7 O           7.8003   -2.5851    0.0000 O.2     1  UNL1       -0.2449
      8 O          11.3198    1.4016    0.0000 O.2     1  UNL1       -0.2449
      9 O           6.0682    1.4149    0.0000 O.2     1  UNL1       -0.2449
     10 O          15.9887    0.8491    0.0000 O.2     1  UNL1       -0.4178
     11 O          14.4329    4.1803    0.0000 O.2     1  UNL1       -0.4178
     12 O           4.9502   -3.5056    0.0000 O.3     1  UNL1       -0.5028
     13 O           4.3198   -2.6197    0.0000 O.3     1  UNL1       -0.5028
     14 O          14.8440    0.2028    0.0000 O.3     1  UNL1       -0.5028
     15 O          11.7751    1.9061    0.0000 O.3     1  UNL1       -0.5028
     16 O          12.4398    3.7723    0.0000 O.3     1  UNL1       -0.5009
     17 O          13.0055   -2.6182    0.0000 O.3     1  UNL1       -0.5032
     18 O           9.3312   -3.6539    0.0000 O.3     1  UNL1       -0.5032
     19 O           7.0944   -4.9453    0.0000 O.3     1  UNL1       -0.5009
     20 O          14.7490   -1.6382    0.0000 O.3     1  UNL1       -0.5009
     21 O           2.5381    0.4390    0.0000 O.3     1  UNL1       -0.5032
     22 O           2.5381   -1.6093    0.0000 O.3     1  UNL1       -0.5009
     23 O          14.6410   -0.2389    0.0000 O.2     1  UNL1       -0.2445
     24 O          17.9507    1.1518    0.0000 O.3     1  UNL1       -0.5009
     25 O          15.8253    5.2733    0.0000 O.2     1  UNL1       -0.2445
     26 O          18.6884    2.9904    0.0000 O.3     1  UNL1       -0.5032
     27 C           8.6663   -0.0851    0.0000 C.3     1  UNL1        0.1839
     28 C           9.5763    0.4217    0.0000 C.3     1  UNL1        0.1719
     29 C           7.8003    0.4149    0.0000 C.3     1  UNL1        0.1938
     30 C           9.5844    1.4633    0.0000 C.3     1  UNL1        0.1252
     31 C           7.7842    1.4564    0.0000 C.3     1  UNL1        0.1980
     32 C          10.4523    1.9600    0.0000 C.3     1  UNL1        0.0741
     33 C           7.8003   -1.5851    0.0000 C.2     1  UNL1        0.3405
     34 C          11.3083    0.4017    0.0000 C.2     1  UNL1        0.3405
     35 C           6.0682    0.4149    0.0000 C.2     1  UNL1        0.3406
     36 C           6.9343   -1.0851    0.0000 C.ar    1  UNL1        0.0740
     37 C          12.1685   -0.1083    0.0000 C.ar    1  UNL1        0.0740
     38 C           5.2022   -0.0851    0.0000 C.ar    1  UNL1        0.0740
     39 C           6.0682   -1.5851    0.0000 C.ar    1  UNL1        0.0458
     40 C           5.2022   -1.0851    0.0000 C.ar    1  UNL1        0.0458
     41 C          13.0402    0.3816    0.0000 C.ar    1  UNL1        0.0458
     42 C          13.3931    1.3173    0.0000 C.ar    1  UNL1        0.0464
     43 C          14.3726    1.4722    0.0000 C.ar    1  UNL1        0.0823
     44 C          14.7324    2.4052    0.0000 C.ar    1  UNL1        0.0474
     45 C           8.3456   -1.6623    0.0000 C.ar    1  UNL1       -0.0017
     46 C          12.1569   -1.1082    0.0000 C.ar    1  UNL1       -0.0017
     47 C          15.7203    2.5602    0.0000 C.ar    1  UNL1        0.0468
     48 C           4.3083    0.4495    0.0000 C.ar    1  UNL1       -0.0017
     49 C           5.8624   -3.0959    0.0000 C.ar    1  UNL1        0.1708
     50 C           4.3083   -1.6198    0.0000 C.ar    1  UNL1        0.1708
     51 C          13.9004   -0.1283    0.0000 C.ar    1  UNL1        0.1708
     52 C          14.0657    3.2056    0.0000 C.ar    1  UNL1        0.1854
     53 C          12.7597    2.0805    0.0000 C.ar    1  UNL1        0.1708
     54 C          13.0925    3.0147    0.0000 C.ar    1  UNL1        0.2028
     55 C          16.3484    1.7821    0.0000 C.ar    1  UNL1        0.1854
     56 C          16.1100    3.5262    0.0000 C.ar    1  UNL1        0.0744
     57 C           8.4488   -3.1835    0.0000 C.ar    1  UNL1        0.1628
     58 C          13.0171   -1.6182    0.0000 C.ar    1  UNL1        0.1628
     59 C           7.1283   -3.9459    0.0000 C.ar    1  UNL1        0.2012
     60 C          15.0007    0.6941    0.0000 C.ar    1  UNL1        0.3460
     61 C           3.4022   -0.0643    0.0000 C.ar    1  UNL1        0.1628
     62 C          13.8888   -1.1283    0.0000 C.ar    1  UNL1        0.2012
     63 C           3.4022   -1.1060    0.0000 C.ar    1  UNL1        0.2012
     64 C          15.4620    4.3417    0.0000 C.ar    1  UNL1        0.3454
     65 C          17.3284    1.9345    0.0000 C.ar    1  UNL1        0.2022
     66 C          17.0949    3.6424    0.0000 C.ar    1  UNL1       -0.0017
     67 C          17.6977    2.8549    0.0000 C.ar    1  UNL1        0.1628
     68 H           9.3992   -0.5158    0.0000 H       1  UNL1        0.0812
     69 H           9.5680   -0.1982    0.0000 H       1  UNL1        0.0800
     70 H           7.0609    0.8342    0.0000 H       1  UNL1        0.0825
     71 H           9.5856    2.0833    0.0000 H       1  UNL1        0.0658
     72 H           7.2515    1.1392    0.0000 H       1  UNL1        0.0948
     73 H          10.6621    1.3765    0.0000 H       1  UNL1        0.0584
     74 H          11.0633    2.0653    0.0000 H       1  UNL1        0.0584
     75 H           6.9053    2.5663    0.0000 H       1  UNL1        0.2126
     76 H           9.9204    3.2720    0.0000 H       1  UNL1        0.2095
     77 H           8.8483   -1.2994    0.0000 H       1  UNL1        0.0664
     78 H          11.6164   -1.4120    0.0000 H       1  UNL1        0.0664
     79 H           4.3154    1.0695    0.0000 H       1  UNL1        0.0664
     80 H          17.3363    4.2134    0.0000 H       1  UNL1        0.0664
     81 H           4.8873   -4.1224    0.0000 H       1  UNL1        0.2923
     82 H           3.7865   -2.9359    0.0000 H       1  UNL1        0.2923
     83 H          15.3143   -0.2012    0.0000 H       1  UNL1        0.2923
     84 H          11.3762    2.3808    0.0000 H       1  UNL1        0.2923
     85 H          12.6442    4.3576    0.0000 H       1  UNL1        0.2924
     86 H          12.4650   -2.9219    0.0000 H       1  UNL1        0.2923
     87 H           9.3522   -4.2736    0.0000 H       1  UNL1        0.2923
     88 H           7.6206   -5.2733    0.0000 H       1  UNL1        0.2924
     89 H          14.7418   -2.2582    0.0000 H       1  UNL1        0.2924
     90 H           2.5405    1.0590    0.0000 H       1  UNL1        0.2923
     91 H           2.0000   -1.3014    0.0000 H       1  UNL1        0.2924
     92 H          18.5639    1.2433    0.0000 H       1  UNL1        0.2924
     93 H          18.9229    3.5643    0.0000 H       1  UNL1        0.2923
@<TRIPOS>BOND
     1     1    30    1
     2     1    31    1
     3     2    27    1
     4     2    33    1
     5    28     3    1
     6     3    34    1
     7     4    29    1
     8     4    35    1
     9    31     5    1
    10     5    75    1
    11     6    32    1
    12     6    76    1
    13     7    33    2
    14     8    34    2
    15     9    35    2
    16    10    55   ar
    17    10    60   ar
    18    11    52   ar
    19    11    64   ar
    20    12    49    1
    21    12    81    1
    22    13    50    1
    23    13    82    1
    24    14    51    1
    25    14    83    1
    26    15    53    1
    27    15    84    1
    28    16    54    1
    29    16    85    1
    30    17    58    1
    31    17    86    1
    32    18    57    1
    33    18    87    1
    34    19    59    1
    35    19    88    1
    36    20    62    1
    37    20    89    1
    38    21    61    1
    39    21    90    1
    40    22    63    1
    41    22    91    1
    42    23    60    2
    43    24    65    1
    44    24    92    1
    45    25    64    2
    46    26    67    1
    47    26    93    1
    48    27    28    1
    49    27    29    1
    50    27    68    1
    51    28    30    1
    52    28    69    1
    53    29    31    1
    54    29    70    1
    55    30    32    1
    56    30    71    1
    57    31    72    1
    58    32    73    1
    59    32    74    1
    60    33    36    1
    61    34    37    1
    62    35    38    1
    63    36    39   ar
    64    36    45   ar
    65    37    41   ar
    66    37    46   ar
    67    38    40   ar
    68    38    48   ar
    69    39    40    1
    70    39    49   ar
    71    40    50   ar
    72    41    42    1
    73    41    51   ar
    74    42    43   ar
    75    42    53   ar
    76    43    44   ar
    77    43    60   ar
    78    44    47   ar
    79    44    52   ar
    80    45    57   ar
    81    45    77    1
    82    46    58   ar
    83    46    78    1
    84    47    55   ar
    85    47    56   ar
    86    48    61   ar
    87    48    79    1
    88    49    59   ar
    89    50    63   ar
    90    51    62   ar
    91    52    54   ar
    92    53    54   ar
    93    55    65   ar
    94    56    64   ar
    95    56    66   ar
    96    57    59   ar
    97    58    62   ar
    98    61    63   ar
    99    65    67   ar
   100    66    67   ar
   101    66    80    1
