@<TRIPOS>MOLECULE
IMPHY010200
 80 85 0 0 0
SMALL
GASTEIGER

@<TRIPOS>ATOM
      1 O           4.8451   -0.7026    0.0000 O.3     1  UNL1       -0.4573
      2 O           6.3626   -1.8714    0.0000 O.3     1  UNL1       -0.3790
      3 O           8.1853    1.8904    0.0000 O.3     1  UNL1       -0.3912
      4 O           4.4689    1.6388    0.0000 O.3     1  UNL1       -0.4607
      5 O           4.0676    2.3483    0.0000 O.3     1  UNL1       -0.3792
      6 O           9.0513   -2.3448    0.0000 O.3     1  UNL1       -0.3824
      7 O           3.1609   -0.2983    0.0000 O.2     1  UNL1       -0.2511
      8 O           3.4719    0.2225    0.0000 O.2     1  UNL1       -0.2512
      9 N           9.3806    0.0613    0.0000 N.3     1  UNL1       -0.2979
     10 C           7.4340    0.4566    0.0000 C.3     1  UNL1        0.0218
     11 C           7.4340   -0.4110    0.0000 C.3     1  UNL1        0.0043
     12 C           6.7556    0.9975    0.0000 C.3     1  UNL1       -0.0209
     13 C           8.4359    0.3505    0.0000 C.3     1  UNL1        0.0279
     14 C           5.9098   -0.7589    0.0000 C.3     1  UNL1        0.0421
     15 C           5.9098    0.8044    0.0000 C.3     1  UNL1        0.0403
     16 C           5.5334    0.0228    0.0000 C.3     1  UNL1        0.1289
     17 C           6.7556   -0.9519    0.0000 C.3     1  UNL1        0.0703
     18 C           8.1853   -0.8448    0.0000 C.3     1  UNL1        0.0127
     19 C           8.1853    0.8904    0.0000 C.3     1  UNL1        0.0629
     20 C           6.8334    1.8616    0.0000 C.3     1  UNL1       -0.0405
     21 C           6.0357    2.2026    0.0000 C.3     1  UNL1        0.0232
     22 C           5.4648    1.5492    0.0000 C.3     1  UNL1        0.1149
     23 C           4.8885    0.2927    0.0000 C.3     1  UNL1        0.0147
     24 C           9.3806   -0.6906    0.0000 C.3     1  UNL1        0.0073
     25 C           8.9366   -0.4110    0.0000 C.3     1  UNL1       -0.0414
     26 C           4.8885    1.7772    0.0000 C.3     1  UNL1        0.0682
     27 C           8.9366    0.4566    0.0000 C.3     1  UNL1       -0.0256
     28 C           8.1853   -1.8448    0.0000 C.3     1  UNL1        0.0544
     29 C          10.1846    0.6560    0.0000 C.3     1  UNL1       -0.0036
     30 C           6.9624   -2.6716    0.0000 C.3     1  UNL1        0.0368
     31 C           3.8863   -0.9867    0.0000 C.2     1  UNL1        0.3045
     32 C          11.1016    0.2571    0.0000 C.3     1  UNL1       -0.0523
     33 C           3.5615    1.2185    0.0000 C.2     1  UNL1        0.3042
     34 C           4.1518    3.3448    0.0000 C.3     1  UNL1        0.0368
     35 C           3.6528   -1.9590    0.0000 C.3     1  UNL1        0.0333
     36 C           9.0513   -3.3448    0.0000 C.3     1  UNL1        0.0365
     37 C           2.7438    1.7941    0.0000 C.3     1  UNL1        0.0332
     38 H           7.4975   -1.2586    0.0000 H       1  UNL1        0.0339
     39 H           7.5372    1.3316    0.0000 H       1  UNL1        0.0313
     40 H           8.5599    0.9580    0.0000 H       1  UNL1        0.0474
     41 H           5.3798   -1.4234    0.0000 H       1  UNL1        0.0380
     42 H           5.0607    0.7663    0.0000 H       1  UNL1        0.0378
     43 H           6.9560   -1.5386    0.0000 H       1  UNL1        0.0603
     44 H           7.6484    1.2004    0.0000 H       1  UNL1        0.0599
     45 H           7.0162    2.4540    0.0000 H       1  UNL1        0.0273
     46 H           7.4417    1.7418    0.0000 H       1  UNL1        0.0273
     47 H           6.0564    3.0523    0.0000 H       1  UNL1        0.0362
     48 H           5.2340    2.1246    0.0000 H       1  UNL1        0.0742
     49 H           4.7266   -0.3058    0.0000 H       1  UNL1        0.0329
     50 H           4.2739    0.3744    0.0000 H       1  UNL1        0.0329
     51 H          10.0001   -0.6640    0.0000 H       1  UNL1        0.0433
     52 H           9.4336   -1.3083    0.0000 H       1  UNL1        0.0433
     53 H           9.5472   -0.3033    0.0000 H       1  UNL1        0.0273
     54 H           9.1487   -0.9936    0.0000 H       1  UNL1        0.0273
     55 H           4.9667    2.3923    0.0000 H       1  UNL1        0.0601
     56 H           9.1487    1.0392    0.0000 H       1  UNL1        0.0290
     57 H           9.5472    0.3489    0.0000 H       1  UNL1        0.0290
     58 H           7.9732   -2.4274    0.0000 H       1  UNL1        0.0566
     59 H           7.5747   -1.7371    0.0000 H       1  UNL1        0.0566
     60 H           9.7349    1.0829    0.0000 H       1  UNL1        0.0424
     61 H          10.5269    1.1730    0.0000 H       1  UNL1        0.0424
     62 H           8.7222    2.2004    0.0000 H       1  UNL1        0.2098
     63 H           7.4585   -2.2997    0.0000 H       1  UNL1        0.0524
     64 H           7.3343   -3.1677    0.0000 H       1  UNL1        0.0524
     65 H           6.4664   -3.0435    0.0000 H       1  UNL1        0.0524
     66 H          11.3489    0.8256    0.0000 H       1  UNL1        0.0242
     67 H          11.6701    0.0098    0.0000 H       1  UNL1        0.0242
     68 H          10.8542   -0.3114    0.0000 H       1  UNL1        0.0242
     69 H           3.5340    3.3970    0.0000 H       1  UNL1        0.0524
     70 H           4.2040    3.9626    0.0000 H       1  UNL1        0.0524
     71 H           4.7696    3.2926    0.0000 H       1  UNL1        0.0524
     72 H           4.2557   -2.1037    0.0000 H       1  UNL1        0.0342
     73 H           3.5081   -2.5619    0.0000 H       1  UNL1        0.0342
     74 H           3.0500   -1.8143    0.0000 H       1  UNL1        0.0342
     75 H           9.6713   -3.3448    0.0000 H       1  UNL1        0.0523
     76 H           9.0513   -3.9648    0.0000 H       1  UNL1        0.0523
     77 H           8.4313   -3.3448    0.0000 H       1  UNL1        0.0523
     78 H           2.3869    1.2871    0.0000 H       1  UNL1        0.0342
     79 H           2.2368    2.1510    0.0000 H       1  UNL1        0.0342
     80 H           3.1007    2.3011    0.0000 H       1  UNL1        0.0342
@<TRIPOS>BOND
     1    16     1    1
     2     1    31    1
     3    17     2    1
     4     2    30    1
     5    19     3    1
     6     3    62    1
     7    22     4    1
     8     4    33    1
     9    26     5    1
    10     5    34    1
    11     6    28    1
    12     6    36    1
    13     7    31    2
    14     8    33    2
    15     9    13    1
    16     9    24    1
    17     9    29    1
    18    10    11    1
    19    10    12    1
    20    10    13    1
    21    10    19    1
    22    11    17    1
    23    11    18    1
    24    11    38    1
    25    12    15    1
    26    12    20    1
    27    12    39    1
    28    13    14    1
    29    13    40    1
    30    14    16    1
    31    14    17    1
    32    14    41    1
    33    15    16    1
    34    15    22    1
    35    15    42    1
    36    16    23    1
    37    17    43    1
    38    18    24    1
    39    18    25    1
    40    18    28    1
    41    19    27    1
    42    19    44    1
    43    20    21    1
    44    20    45    1
    45    20    46    1
    46    21    22    1
    47    21    26    1
    48    21    47    1
    49    22    48    1
    50    23    26    1
    51    23    49    1
    52    23    50    1
    53    24    51    1
    54    24    52    1
    55    25    27    1
    56    25    53    1
    57    25    54    1
    58    26    55    1
    59    27    56    1
    60    27    57    1
    61    28    58    1
    62    28    59    1
    63    29    32    1
    64    29    60    1
    65    29    61    1
    66    30    63    1
    67    30    64    1
    68    30    65    1
    69    31    35    1
    70    32    66    1
    71    32    67    1
    72    32    68    1
    73    33    37    1
    74    34    69    1
    75    34    70    1
    76    34    71    1
    77    35    72    1
    78    35    73    1
    79    35    74    1
    80    36    75    1
    81    36    76    1
    82    36    77    1
    83    37    78    1
    84    37    79    1
    85    37    80    1
