@<TRIPOS>MOLECULE
IMPHY013661
 40 41 0 0 0
SMALL
GASTEIGER

@<TRIPOS>ATOM
      1 O           5.4641    2.0000    0.0000 O.3     1  UNL1       -0.3912
      2 O           7.1962   -2.0000    0.0000 O.2     1  UNL1       -0.2919
      3 O           8.9446    2.0346    0.0000 O.3     1  UNL1       -0.5065
      4 O           8.9446   -2.0346    0.0000 O.3     1  UNL1       -0.5061
      5 C           6.3301    0.5000    0.0000 C.3     1  UNL1       -0.0036
      6 C           7.1962    1.0000    0.0000 C.3     1  UNL1       -0.0179
      7 C           5.4641    1.0000    0.0000 C.3     1  UNL1        0.0622
      8 C           6.3301   -0.5000    0.0000 C.3     1  UNL1        0.0161
      9 C           8.0622    0.5000    0.0000 C.ar    1  UNL1        0.0084
     10 C           8.0622   -0.5000    0.0000 C.ar    1  UNL1        0.0654
     11 C           7.1962   -1.0000    0.0000 C.2     1  UNL1        0.1674
     12 C           4.5981    0.5000    0.0000 C.3     1  UNL1       -0.0081
     13 C           8.9561    1.0347    0.0000 C.ar    1  UNL1        0.1209
     14 C           8.9561   -1.0347    0.0000 C.ar    1  UNL1        0.1278
     15 C           3.7320    1.0000    0.0000 C.2     1  UNL1       -0.0829
     16 C           9.8622    0.5208    0.0000 C.ar    1  UNL1       -0.0164
     17 C           9.8622   -0.5208    0.0000 C.ar    1  UNL1       -0.0160
     18 C           2.8660    0.5000    0.0000 C.2     1  UNL1       -0.0795
     19 C           2.0000    1.0000    0.0000 C.3     1  UNL1       -0.0440
     20 C           2.8660   -0.5000    0.0000 C.3     1  UNL1       -0.0440
     21 H           5.7932    0.1900    0.0000 H       1  UNL1        0.0333
     22 H           7.5947    1.4750    0.0000 H       1  UNL1        0.0318
     23 H           6.7976    1.4750    0.0000 H       1  UNL1        0.0318
     24 H           6.0010    1.3100    0.0000 H       1  UNL1        0.0599
     25 H           5.7196   -0.3923    0.0000 H       1  UNL1        0.0349
     26 H           6.1181   -1.0826    0.0000 H       1  UNL1        0.0349
     27 H           4.1996    0.0251    0.0000 H       1  UNL1        0.0332
     28 H           4.9966    0.0251    0.0000 H       1  UNL1        0.0332
     29 H           4.9272    2.3100    0.0000 H       1  UNL1        0.2098
     30 H           3.7320    1.6200    0.0000 H       1  UNL1        0.0572
     31 H          10.3979    0.8329    0.0000 H       1  UNL1        0.0655
     32 H          10.3979   -0.8329    0.0000 H       1  UNL1        0.0655
     33 H           9.4779    2.3508    0.0000 H       1  UNL1        0.2921
     34 H           9.4779   -2.3508    0.0000 H       1  UNL1        0.2922
     35 H           2.3100    1.5369    0.0000 H       1  UNL1        0.0274
     36 H           1.4631    1.3100    0.0000 H       1  UNL1        0.0274
     37 H           1.6900    0.4631    0.0000 H       1  UNL1        0.0274
     38 H           2.2460   -0.5000    0.0000 H       1  UNL1        0.0274
     39 H           2.8660   -1.1200    0.0000 H       1  UNL1        0.0274
     40 H           3.4860   -0.5000    0.0000 H       1  UNL1        0.0274
@<TRIPOS>BOND
     1     7     1    1
     2     1    29    1
     3     2    11    2
     4     3    13    1
     5     3    33    1
     6     4    14    1
     7     4    34    1
     8     5     6    1
     9     5     7    1
    10     5     8    1
    11     5    21    1
    12     6     9    1
    13     6    22    1
    14     6    23    1
    15     7    12    1
    16     7    24    1
    17     8    11    1
    18     8    25    1
    19     8    26    1
    20     9    10   ar
    21     9    13   ar
    22    10    11    1
    23    10    14   ar
    24    12    15    1
    25    12    27    1
    26    12    28    1
    27    13    16   ar
    28    14    17   ar
    29    15    18    2
    30    15    30    1
    31    16    17   ar
    32    16    31    1
    33    17    32    1
    34    18    19    1
    35    18    20    1
    36    19    35    1
    37    19    36    1
    38    19    37    1
    39    20    38    1
    40    20    39    1
    41    20    40    1
