@<TRIPOS>MOLECULE
IMPHY013203
 98 98 0 0 0
SMALL
GASTEIGER

@<TRIPOS>ATOM
      1 O          10.7942    6.7500    0.0000 O.2     1  UNL1       -0.2921
      2 O          13.3923   10.2500    0.0000 O.2     1  UNL1       -0.2977
      3 C           3.0000   -8.7500    0.0000 C.3     1  UNL1       -0.0099
      4 C           3.0000   -9.7500    0.0000 C.3     1  UNL1       -0.0436
      5 C           3.8660  -10.2500    0.0000 C.3     1  UNL1       -0.0486
      6 C           3.8660   -8.2500    0.0000 C.2     1  UNL1       -0.0427
      7 C           4.7320   -9.7500    0.0000 C.3     1  UNL1       -0.0314
      8 C           4.7320   -8.7500    0.0000 C.2     1  UNL1       -0.0689
      9 C           2.0000   -8.7500    0.0000 C.3     1  UNL1       -0.0558
     10 C           2.5000   -7.8840    0.0000 C.3     1  UNL1       -0.0558
     11 C           3.8660   -7.2500    0.0000 C.2     1  UNL1       -0.0579
     12 C           5.5981   -8.2500    0.0000 C.3     1  UNL1       -0.0432
     13 C           4.7320   -6.7500    0.0000 C.2     1  UNL1       -0.0586
     14 C          12.5263    6.7500    0.0000 C.3     1  UNL1        0.0274
     15 C          13.3923    7.2500    0.0000 C.3     1  UNL1       -0.0405
     16 C           4.7320   -5.7500    0.0000 C.2     1  UNL1       -0.0504
     17 C          13.3923    8.2500    0.0000 C.3     1  UNL1       -0.0455
     18 C          12.0263    7.6160    0.0000 C.3     1  UNL1       -0.0528
     19 C          13.0263    5.8840    0.0000 C.3     1  UNL1       -0.0528
     20 C          11.6603    6.2500    0.0000 C.2     1  UNL1        0.1617
     21 C          14.2583    8.7500    0.0000 C.3     1  UNL1        0.0056
     22 C           3.8660   -5.2500    0.0000 C.3     1  UNL1       -0.0397
     23 C           5.5981   -5.2500    0.0000 C.2     1  UNL1       -0.0588
     24 C          11.6603    5.2500    0.0000 C.2     1  UNL1       -0.0184
     25 C          14.2583    9.7500    0.0000 C.2     1  UNL1        0.1303
     26 C           5.5981   -4.2500    0.0000 C.2     1  UNL1       -0.0613
     27 C          10.7942    4.7500    0.0000 C.2     1  UNL1       -0.0555
     28 C          15.1244   10.2500    0.0000 C.3     1  UNL1       -0.0061
     29 C          10.7942    3.7500    0.0000 C.2     1  UNL1       -0.0503
     30 C           6.4641   -3.7500    0.0000 C.2     1  UNL1       -0.0588
     31 C          11.6603    3.2500    0.0000 C.3     1  UNL1       -0.0397
     32 C           6.4641   -2.7500    0.0000 C.2     1  UNL1       -0.0504
     33 C           9.9282    3.2500    0.0000 C.2     1  UNL1       -0.0588
     34 C           5.5981   -2.2500    0.0000 C.3     1  UNL1       -0.0397
     35 C           9.9282    2.2500    0.0000 C.2     1  UNL1       -0.0613
     36 C           7.3301   -2.2500    0.0000 C.2     1  UNL1       -0.0588
     37 C           9.0622    1.7500    0.0000 C.2     1  UNL1       -0.0588
     38 C           7.3301   -1.2500    0.0000 C.2     1  UNL1       -0.0615
     39 C           9.0622    0.7500    0.0000 C.2     1  UNL1       -0.0504
     40 C           8.1962   -0.7500    0.0000 C.2     1  UNL1       -0.0615
     41 C           8.1962    0.2500    0.0000 C.2     1  UNL1       -0.0588
     42 C           9.9282    0.2500    0.0000 C.3     1  UNL1       -0.0397
     43 H           2.3894   -9.6423    0.0000 H       1  UNL1        0.0274
     44 H           2.7880  -10.3326    0.0000 H       1  UNL1        0.0274
     45 H           3.4675  -10.7249    0.0000 H       1  UNL1        0.0269
     46 H           4.2646  -10.7249    0.0000 H       1  UNL1        0.0269
     47 H           4.9441  -10.3326    0.0000 H       1  UNL1        0.0310
     48 H           5.3426   -9.6423    0.0000 H       1  UNL1        0.0310
     49 H           2.0000   -8.1300    0.0000 H       1  UNL1        0.0238
     50 H           1.3800   -8.7500    0.0000 H       1  UNL1        0.0238
     51 H           2.0000   -9.3700    0.0000 H       1  UNL1        0.0238
     52 H           3.0369   -7.5740    0.0000 H       1  UNL1        0.0238
     53 H           2.1900   -7.3470    0.0000 H       1  UNL1        0.0238
     54 H           1.9631   -8.1940    0.0000 H       1  UNL1        0.0238
     55 H           3.3291   -6.9400    0.0000 H       1  UNL1        0.0621
     56 H           5.9081   -8.7869    0.0000 H       1  UNL1        0.0275
     57 H           6.1350   -7.9400    0.0000 H       1  UNL1        0.0275
     58 H           5.2881   -7.7131    0.0000 H       1  UNL1        0.0275
     59 H           5.2690   -7.0600    0.0000 H       1  UNL1        0.0620
     60 H          13.6044    6.6674    0.0000 H       1  UNL1        0.0275
     61 H          14.0029    7.3577    0.0000 H       1  UNL1        0.0275
     62 H          13.1803    8.8326    0.0000 H       1  UNL1        0.0270
     63 H          12.7817    8.1423    0.0000 H       1  UNL1        0.0270
     64 H          12.5632    7.9260    0.0000 H       1  UNL1        0.0239
     65 H          11.7163    8.1530    0.0000 H       1  UNL1        0.0239
     66 H          11.4893    7.3060    0.0000 H       1  UNL1        0.0239
     67 H          12.4893    5.5740    0.0000 H       1  UNL1        0.0239
     68 H          13.3363    5.3470    0.0000 H       1  UNL1        0.0239
     69 H          13.5632    6.1940    0.0000 H       1  UNL1        0.0239
     70 H          14.4704    8.1674    0.0000 H       1  UNL1        0.0341
     71 H          14.8689    8.8577    0.0000 H       1  UNL1        0.0341
     72 H           4.1760   -4.7131    0.0000 H       1  UNL1        0.0278
     73 H           3.3291   -4.9400    0.0000 H       1  UNL1        0.0278
     74 H           3.5560   -5.7869    0.0000 H       1  UNL1        0.0278
     75 H           6.1350   -5.5600    0.0000 H       1  UNL1        0.0620
     76 H          12.1972    4.9400    0.0000 H       1  UNL1        0.0653
     77 H           5.0611   -3.9400    0.0000 H       1  UNL1        0.0618
     78 H          10.2573    5.0600    0.0000 H       1  UNL1        0.0621
     79 H          15.4344    9.7131    0.0000 H       1  UNL1        0.0306
     80 H          15.6613   10.5600    0.0000 H       1  UNL1        0.0306
     81 H          14.8144   10.7869    0.0000 H       1  UNL1        0.0306
     82 H           7.0010   -4.0600    0.0000 H       1  UNL1        0.0620
     83 H          11.3503    2.7131    0.0000 H       1  UNL1        0.0278
     84 H          12.1972    2.9400    0.0000 H       1  UNL1        0.0278
     85 H          11.9703    3.7869    0.0000 H       1  UNL1        0.0278
     86 H           9.3913    3.5600    0.0000 H       1  UNL1        0.0620
     87 H           5.9081   -1.7131    0.0000 H       1  UNL1        0.0278
     88 H           5.0611   -1.9400    0.0000 H       1  UNL1        0.0278
     89 H           5.2881   -2.7869    0.0000 H       1  UNL1        0.0278
     90 H          10.4651    1.9400    0.0000 H       1  UNL1        0.0618
     91 H           7.8671   -2.5600    0.0000 H       1  UNL1        0.0620
     92 H           8.5252    2.0600    0.0000 H       1  UNL1        0.0620
     93 H           6.7932   -0.9400    0.0000 H       1  UNL1        0.0618
     94 H           8.7331   -1.0600    0.0000 H       1  UNL1        0.0618
     95 H           7.6592    0.5600    0.0000 H       1  UNL1        0.0620
     96 H           9.6182   -0.2869    0.0000 H       1  UNL1        0.0278
     97 H          10.4651   -0.0600    0.0000 H       1  UNL1        0.0278
     98 H          10.2382    0.7869    0.0000 H       1  UNL1        0.0278
@<TRIPOS>BOND
     1     1    20    2
     2     2    25    2
     3     3     4    1
     4     3     6    1
     5     3     9    1
     6     3    10    1
     7     4     5    1
     8     4    43    1
     9     4    44    1
    10     5     7    1
    11     5    45    1
    12     5    46    1
    13     6     8    2
    14     6    11    1
    15     7     8    1
    16     7    47    1
    17     7    48    1
    18     8    12    1
    19     9    49    1
    20     9    50    1
    21     9    51    1
    22    10    52    1
    23    10    53    1
    24    10    54    1
    25    11    13    2
    26    11    55    1
    27    12    56    1
    28    12    57    1
    29    12    58    1
    30    13    16    1
    31    13    59    1
    32    14    15    1
    33    14    18    1
    34    14    19    1
    35    14    20    1
    36    15    17    1
    37    15    60    1
    38    15    61    1
    39    16    22    1
    40    16    23    2
    41    17    21    1
    42    17    62    1
    43    17    63    1
    44    18    64    1
    45    18    65    1
    46    18    66    1
    47    19    67    1
    48    19    68    1
    49    19    69    1
    50    20    24    1
    51    21    25    1
    52    21    70    1
    53    21    71    1
    54    22    72    1
    55    22    73    1
    56    22    74    1
    57    23    26    1
    58    23    75    1
    59    24    27    2
    60    24    76    1
    61    25    28    1
    62    26    30    2
    63    26    77    1
    64    27    29    1
    65    27    78    1
    66    28    79    1
    67    28    80    1
    68    28    81    1
    69    29    31    1
    70    29    33    2
    71    30    32    1
    72    30    82    1
    73    31    83    1
    74    31    84    1
    75    31    85    1
    76    32    34    1
    77    32    36    2
    78    33    35    1
    79    33    86    1
    80    34    87    1
    81    34    88    1
    82    34    89    1
    83    35    37    2
    84    35    90    1
    85    36    38    1
    86    36    91    1
    87    37    39    1
    88    37    92    1
    89    38    40    2
    90    38    93    1
    91    39    41    2
    92    39    42    1
    93    40    41    1
    94    40    94    1
    95    41    95    1
    96    42    96    1
    97    42    97    1
    98    42    98    1
