@<TRIPOS>MOLECULE
IMPHY009087
 43 44 0 0 0
SMALL
GASTEIGER

@<TRIPOS>ATOM
      1 O           4.3723   -2.2514    0.0000 O.3     1  UNL1       -0.4532
      2 O           2.8495    0.7204    0.0000 O.3     1  UNL1       -0.3907
      3 O           2.8836   -3.2204    0.0000 O.2     1  UNL1       -0.2453
      4 O           5.8873    1.4285    0.0000 O.3     1  UNL1       -0.4604
      5 O           3.7155    3.2204    0.0000 O.2     1  UNL1       -0.2960
      6 O           7.2141    0.3152    0.0000 O.2     1  UNL1       -0.2512
      7 C           3.7155   -0.7796    0.0000 C.3     1  UNL1        0.0573
      8 C           4.5816   -1.2796    0.0000 C.3     1  UNL1        0.1312
      9 C           3.7155    0.2204    0.0000 C.3     1  UNL1        0.0700
     10 C           2.9785   -1.4466    0.0000 C.2     1  UNL1        0.0389
     11 C           4.5816    0.7204    0.0000 C.3     1  UNL1        0.0019
     12 C           5.4476   -0.7796    0.0000 C.2     1  UNL1       -0.0409
     13 C           5.4476    0.2204    0.0000 C.2     1  UNL1       -0.0328
     14 C           3.3836   -2.3544    0.0000 C.2     1  UNL1        0.3356
     15 C           6.3136    0.7204    0.0000 C.3     1  UNL1       -0.0250
     16 C           4.5816    1.7204    0.0000 C.2     1  UNL1       -0.0096
     17 C           6.3136    1.7204    0.0000 C.3     1  UNL1       -0.0303
     18 C           5.4476    2.2204    0.0000 C.2     1  UNL1       -0.0774
     19 C           2.0000   -1.2404    0.0000 C.2     1  UNL1       -0.0882
     20 C           4.9476    1.0865    0.0000 C.3     1  UNL1        0.1137
     21 C           3.7155    2.2204    0.0000 C.2     1  UNL1        0.1460
     22 C           6.8721    1.2548    0.0000 C.2     1  UNL1        0.3042
     23 C           7.5149    2.0209    0.0000 C.3     1  UNL1        0.0332
     24 H           2.9386   -0.4348    0.0000 H       1  UNL1        0.0416
     25 H           5.2686   -1.7801    0.0000 H       1  UNL1        0.0786
     26 H           3.7155    0.8404    0.0000 H       1  UNL1        0.0604
     27 H           4.7936    0.1378    0.0000 H       1  UNL1        0.0339
     28 H           5.1921    0.8281    0.0000 H       1  UNL1        0.0339
     29 H           5.9845   -1.0896    0.0000 H       1  UNL1        0.0609
     30 H           6.5256    0.1378    0.0000 H       1  UNL1        0.0314
     31 H           6.9242    0.8281    0.0000 H       1  UNL1        0.0314
     32 H           6.9242    1.6128    0.0000 H       1  UNL1        0.0311
     33 H           6.5256    2.3031    0.0000 H       1  UNL1        0.0311
     34 H           5.4476    2.8404    0.0000 H       1  UNL1        0.0576
     35 H           2.3126    0.4104    0.0000 H       1  UNL1        0.2098
     36 H           1.8074   -0.6511    0.0000 H       1  UNL1        0.0540
     37 H           1.5859   -1.7019    0.0000 H       1  UNL1        0.0540
     38 H           4.7020    1.6558    0.0000 H       1  UNL1        0.0745
     39 H           4.3935    0.8082    0.0000 H       1  UNL1        0.0745
     40 H           3.1786    1.9104    0.0000 H       1  UNL1        0.1078
     41 H           7.9898    1.6224    0.0000 H       1  UNL1        0.0342
     42 H           7.9134    2.4958    0.0000 H       1  UNL1        0.0342
     43 H           7.0399    2.4194    0.0000 H       1  UNL1        0.0342
@<TRIPOS>BOND
     1     1     8    1
     2     1    14    1
     3     9     2    1
     4     2    35    1
     5     3    14    2
     6     4    20    1
     7     4    22    1
     8     5    21    2
     9     6    22    2
    10     7     8    1
    11     7     9    1
    12     7    10    1
    13     7    24    1
    14     8    12    1
    15     8    25    1
    16     9    11    1
    17     9    26    1
    18    10    14    1
    19    10    19    2
    20    11    16    1
    21    11    27    1
    22    11    28    1
    23    12    13    2
    24    12    29    1
    25    13    15    1
    26    13    20    1
    27    15    17    1
    28    15    30    1
    29    15    31    1
    30    16    18    2
    31    16    21    1
    32    17    18    1
    33    17    32    1
    34    17    33    1
    35    18    34    1
    36    19    36    1
    37    19    37    1
    38    20    38    1
    39    20    39    1
    40    21    40    1
    41    22    23    1
    42    23    41    1
    43    23    42    1
    44    23    43    1
