@<TRIPOS>MOLECULE
IMPHY007516
 45 46 0 0 0
SMALL
GASTEIGER

@<TRIPOS>ATOM
      1 O           3.5000    0.2164    0.0000 O.3     1  UNL1       -0.4581
      2 O           4.4782    2.2478    0.0000 O.3     1  UNL1       -0.4942
      3 O           4.7588   -0.7496    0.0000 O.2     1  UNL1       -0.2448
      4 O           8.0180    2.2615    0.0000 O.3     1  UNL1       -0.5066
      5 C           3.5000   -3.2478    0.0000 C.3     1  UNL1       -0.0529
      6 C           4.5000   -3.2478    0.0000 C.3     1  UNL1       -0.0530
      7 C           3.0000   -2.3817    0.0000 C.3     1  UNL1       -0.0497
      8 C           5.0000   -2.3817    0.0000 C.3     1  UNL1       -0.0528
      9 C           3.5000   -1.5157    0.0000 C.3     1  UNL1       -0.0159
     10 C           5.8660   -1.8817    0.0000 C.3     1  UNL1       -0.0490
     11 C           3.0000   -0.6497    0.0000 C.3     1  UNL1        0.1006
     12 C           6.2320   -0.7836    0.0000 C.3     1  UNL1       -0.0267
     13 C           6.2320    0.2164    0.0000 C.ar    1  UNL1       -0.0264
     14 C           5.3660    0.7164    0.0000 C.ar    1  UNL1        0.1039
     15 C           2.0000   -0.6497    0.0000 C.3     1  UNL1       -0.0277
     16 C           4.5000    0.2164    0.0000 C.2     1  UNL1        0.3433
     17 C           7.1420    0.7232    0.0000 C.ar    1  UNL1       -0.0160
     18 C           5.3500    1.7579    0.0000 C.ar    1  UNL1        0.1378
     19 C           7.1501    1.7648    0.0000 C.ar    1  UNL1        0.1206
     20 C           6.2480    2.2856    0.0000 C.ar    1  UNL1        0.0224
     21 C           4.4666    3.2478    0.0000 C.3     1  UNL1        0.0788
     22 H           2.9174   -3.4598    0.0000 H       1  UNL1        0.0265
     23 H           3.6077   -3.8583    0.0000 H       1  UNL1        0.0265
     24 H           4.3923   -3.8583    0.0000 H       1  UNL1        0.0265
     25 H           5.0826   -3.4598    0.0000 H       1  UNL1        0.0265
     26 H           2.5250   -1.9832    0.0000 H       1  UNL1        0.0266
     27 H           2.5250   -2.7802    0.0000 H       1  UNL1        0.0266
     28 H           4.8923   -1.7711    0.0000 H       1  UNL1        0.0265
     29 H           5.4384   -2.8201    0.0000 H       1  UNL1        0.0265
     30 H           3.9750   -1.9142    0.0000 H       1  UNL1        0.0301
     31 H           3.9750   -1.1172    0.0000 H       1  UNL1        0.0301
     32 H           6.0145   -2.4837    0.0000 H       1  UNL1        0.0268
     33 H           6.4855   -1.9065    0.0000 H       1  UNL1        0.0268
     34 H           2.6900   -0.1127    0.0000 H       1  UNL1        0.0731
     35 H           6.6907   -1.2008    0.0000 H       1  UNL1        0.0313
     36 H           5.6201   -0.6843    0.0000 H       1  UNL1        0.0313
     37 H           2.0000   -0.0297    0.0000 H       1  UNL1        0.0265
     38 H           1.3800   -0.6497    0.0000 H       1  UNL1        0.0265
     39 H           2.0000   -1.2697    0.0000 H       1  UNL1        0.0265
     40 H           7.6754    0.4070    0.0000 H       1  UNL1        0.0657
     41 H           6.2456    2.9056    0.0000 H       1  UNL1        0.0691
     42 H           8.0204    2.8814    0.0000 H       1  UNL1        0.2921
     43 H           5.0866    3.2549    0.0000 H       1  UNL1        0.0660
     44 H           4.4595    3.8677    0.0000 H       1  UNL1        0.0660
     45 H           3.8467    3.2406    0.0000 H       1  UNL1        0.0660
@<TRIPOS>BOND
     1     1    11    1
     2     1    16    1
     3     2    18    1
     4     2    21    1
     5     3    16    2
     6     4    19    1
     7     4    42    1
     8     5     6    1
     9     5     7    1
    10     5    22    1
    11     5    23    1
    12     6     8    1
    13     6    24    1
    14     6    25    1
    15     7     9    1
    16     7    26    1
    17     7    27    1
    18     8    10    1
    19     8    28    1
    20     8    29    1
    21     9    11    1
    22     9    30    1
    23     9    31    1
    24    10    12    1
    25    10    32    1
    26    10    33    1
    27    11    15    1
    28    11    34    1
    29    12    13    1
    30    12    35    1
    31    12    36    1
    32    13    14   ar
    33    13    17   ar
    34    14    16    1
    35    14    18   ar
    36    15    37    1
    37    15    38    1
    38    15    39    1
    39    17    19   ar
    40    17    40    1
    41    18    20   ar
    42    19    20   ar
    43    20    41    1
    44    21    43    1
    45    21    44    1
    46    21    45    1
