@<TRIPOS>MOLECULE
IMPHY000793
 41 43 0 0 0
SMALL
GASTEIGER

@<TRIPOS>ATOM
      1 O           7.2622    0.8450    0.0000 O.3     1  UNL1       -0.3886
      2 O           6.3961    3.3450    0.0000 O.3     1  UNL1       -0.3866
      3 O           7.3424   -0.3503    0.0000 O.2     1  UNL1       -0.4624
      4 O           3.7702   -0.1203    0.0000 O.2     1  UNL1       -0.4216
      5 O           5.5301   -3.1550    0.0000 O.3     1  UNL1       -0.4937
      6 O           2.0000   -0.1308    0.0000 O.2     1  UNL1       -0.2452
      7 C           6.3961    1.3450    0.0000 C.3     1  UNL1        0.0875
      8 C           6.3961    2.3450    0.0000 C.3     1  UNL1        0.0865
      9 C           5.5301    0.8450    0.0000 C.3     1  UNL1        0.0082
     10 C           5.5301   -0.1550    0.0000 C.ar    1  UNL1        0.0411
     11 C           6.3961   -0.6550    0.0000 C.ar    1  UNL1        0.1451
     12 C           4.6641   -0.6550    0.0000 C.ar    1  UNL1        0.1493
     13 C           7.3962    2.3450    0.0000 C.3     1  UNL1       -0.0339
     14 C           5.3961    2.3450    0.0000 C.3     1  UNL1       -0.0339
     15 C           6.3961   -1.6550    0.0000 C.ar    1  UNL1        0.0628
     16 C           4.6641   -1.6550    0.0000 C.ar    1  UNL1        0.0603
     17 C           5.5301   -2.1550    0.0000 C.ar    1  UNL1        0.1415
     18 C           7.3424   -1.9597    0.0000 C.ar    1  UNL1       -0.0126
     19 C           3.7702   -2.1897    0.0000 C.ar    1  UNL1       -0.0408
     20 C           7.9260   -1.1550    0.0000 C.ar    1  UNL1        0.0933
     21 C           2.8641   -1.6758    0.0000 C.ar    1  UNL1        0.0237
     22 C           2.8641   -0.6342    0.0000 C.ar    1  UNL1        0.3372
     23 C           6.3961   -3.6550    0.0000 C.3     1  UNL1        0.0788
     24 H           6.9331    1.6550    0.0000 H       1  UNL1        0.0625
     25 H           5.3181    1.4276    0.0000 H       1  UNL1        0.0341
     26 H           4.9196    0.7373    0.0000 H       1  UNL1        0.0341
     27 H           5.3961    2.9650    0.0000 H       1  UNL1        0.0258
     28 H           7.3962    1.7250    0.0000 H       1  UNL1        0.0258
     29 H           8.0162    2.3450    0.0000 H       1  UNL1        0.0258
     30 H           7.3962    2.9650    0.0000 H       1  UNL1        0.0258
     31 H           4.7762    2.3450    0.0000 H       1  UNL1        0.0258
     32 H           5.3961    1.7250    0.0000 H       1  UNL1        0.0258
     33 H           7.7991    1.1550    0.0000 H       1  UNL1        0.2099
     34 H           6.9331    3.6550    0.0000 H       1  UNL1        0.2102
     35 H           7.5350   -2.5490    0.0000 H       1  UNL1        0.0656
     36 H           3.7773   -2.8096    0.0000 H       1  UNL1        0.0628
     37 H           8.5460   -1.1550    0.0000 H       1  UNL1        0.1030
     38 H           2.3284   -1.9879    0.0000 H       1  UNL1        0.0689
     39 H           6.0862   -4.1919    0.0000 H       1  UNL1        0.0660
     40 H           6.9331   -3.9650    0.0000 H       1  UNL1        0.0660
     41 H           6.7062   -3.1181    0.0000 H       1  UNL1        0.0660
@<TRIPOS>BOND
     1     1     7    1
     2     1    33    1
     3     2     8    1
     4     2    34    1
     5     3    11   ar
     6     3    20   ar
     7     4    12   ar
     8     4    22   ar
     9     5    17    1
    10     5    23    1
    11     6    22    2
    12     7     8    1
    13     7     9    1
    14     7    24    1
    15     8    13    1
    16     8    14    1
    17     9    10    1
    18     9    25    1
    19     9    26    1
    20    10    11   ar
    21    10    12   ar
    22    11    15   ar
    23    12    16   ar
    24    13    28    1
    25    13    29    1
    26    13    30    1
    27    14    27    1
    28    14    31    1
    29    14    32    1
    30    15    17   ar
    31    15    18   ar
    32    16    17   ar
    33    16    19   ar
    34    18    20   ar
    35    18    35    1
    36    19    21   ar
    37    19    36    1
    38    20    37    1
    39    21    22   ar
    40    21    38    1
    41    23    39    1
    42    23    40    1
    43    23    41    1
