@<TRIPOS>MOLECULE
IMPHY000953
 81 87 0 0 0
SMALL
GASTEIGER

@<TRIPOS>ATOM
      1 O          11.3903    2.0248    0.0000 O.3     1  UNL1       -0.3604
      2 O           6.0010    3.0974    0.0000 O.3     1  UNL1       -0.3480
      3 O          12.6309   -2.8538    0.0000 O.3     1  UNL1       -0.4571
      4 O           4.2690    3.0974    0.0000 O.3     1  UNL1       -0.3456
      5 O          14.3904   -3.1363    0.0000 O.2     1  UNL1       -0.2456
      6 O           4.2690    0.0974    0.0000 O.3     1  UNL1       -0.3770
      7 O           2.5369    1.0974    0.0000 O.3     1  UNL1       -0.3867
      8 C          11.3862    1.0243    0.0000 C.3     1  UNL1        0.1053
      9 C          10.5221    1.5277    0.0000 C.3     1  UNL1        0.1030
     10 C          11.3823    0.0243    0.0000 C.3     1  UNL1        0.0063
     11 C           9.6541    1.0310    0.0000 C.3     1  UNL1       -0.0034
     12 C           8.7461    1.5414    0.0000 C.3     1  UNL1       -0.0235
     13 C          12.3336    1.3254    0.0000 C.3     1  UNL1       -0.0199
     14 C          10.5422    2.5691    0.0000 C.3     1  UNL1       -0.0204
     15 C          12.3274   -0.2840    0.0000 C.3     1  UNL1       -0.0080
     16 C          10.5144   -0.4723    0.0000 C.3     1  UNL1       -0.0440
     17 C           9.6503    0.0310    0.0000 C.3     1  UNL1       -0.0464
     18 C           8.7421    2.5830    0.0000 C.3     1  UNL1       -0.0329
     19 C          12.9141    0.5184    0.0000 C.3     1  UNL1       -0.0431
     20 C           9.6462    3.1003    0.0000 C.3     1  UNL1       -0.0469
     21 C          11.3785   -0.9757    0.0000 C.3     1  UNL1       -0.0563
     22 C           7.8171    0.9808    0.0000 C.3     1  UNL1       -0.0447
     23 C           7.8088    3.1363    0.0000 C.3     1  UNL1       -0.0232
     24 C           8.7500    0.5414    0.0000 C.3     1  UNL1       -0.0590
     25 C          12.6344   -1.2358    0.0000 C.2     1  UNL1       -0.0222
     26 C           6.8712    1.5124    0.0000 C.3     1  UNL1       -0.0260
     27 C           6.8671    2.5974    0.0000 C.3     1  UNL1        0.0620
     28 C          12.0448   -2.0435    0.0000 C.3     1  UNL1        0.1147
     29 C          13.5847   -1.5468    0.0000 C.2     1  UNL1        0.0252
     30 C          13.5826   -2.5468    0.0000 C.2     1  UNL1        0.3323
     31 C           5.1350    2.5974    0.0000 C.3     1  UNL1        0.1624
     32 C           5.1350    1.5974    0.0000 C.3     1  UNL1        0.0272
     33 C           4.2690    1.0974    0.0000 C.3     1  UNL1        0.0911
     34 C           3.4030    2.5974    0.0000 C.3     1  UNL1        0.0871
     35 C           3.4030    1.5974    0.0000 C.3     1  UNL1        0.1073
     36 C           2.5369    3.0974    0.0000 C.3     1  UNL1       -0.0361
     37 C           3.4030   -0.4026    0.0000 C.3     1  UNL1        0.0369
     38 H          10.3886    0.6032    0.0000 H       1  UNL1        0.0335
     39 H          12.8721    1.6326    0.0000 H       1  UNL1        0.0294
     40 H          12.0847    1.8933    0.0000 H       1  UNL1        0.0294
     41 H          11.1509    2.4512    0.0000 H       1  UNL1        0.0294
     42 H          10.7624    3.1486    0.0000 H       1  UNL1        0.0294
     43 H          12.9395   -0.3826    0.0000 H       1  UNL1        0.0353
     44 H          10.1140   -0.9457    0.0000 H       1  UNL1        0.0272
     45 H          10.9111   -0.9488    0.0000 H       1  UNL1        0.0272
     46 H           9.0401    0.1410    0.0000 H       1  UNL1        0.0269
     47 H           9.4360   -0.5508    0.0000 H       1  UNL1        0.0269
     48 H           8.7486    3.4329    0.0000 H       1  UNL1        0.0307
     49 H          13.3733    0.1019    0.0000 H       1  UNL1        0.0272
     50 H          13.3765    0.9314    0.0000 H       1  UNL1        0.0272
     51 H          10.0489    3.5716    0.0000 H       1  UNL1        0.0269
     52 H           9.2507    3.5778    0.0000 H       1  UNL1        0.0269
     53 H          10.7585   -0.9733    0.0000 H       1  UNL1        0.0236
     54 H          11.3761   -1.5957    0.0000 H       1  UNL1        0.0236
     55 H          11.9985   -0.9781    0.0000 H       1  UNL1        0.0236
     56 H           7.4253    0.5003    0.0000 H       1  UNL1        0.0271
     57 H           8.2235    0.5126    0.0000 H       1  UNL1        0.0271
     58 H           8.2116    3.6076    0.0000 H       1  UNL1        0.0293
     59 H           7.4133    3.6138    0.0000 H       1  UNL1        0.0293
     60 H           8.1299    0.5390    0.0000 H       1  UNL1        0.0235
     61 H           8.7523   -0.0786    0.0000 H       1  UNL1        0.0235
     62 H           9.3699    0.5437    0.0000 H       1  UNL1        0.0235
     63 H           6.2600    1.6162    0.0000 H       1  UNL1        0.0290
     64 H           6.6644    0.9279    0.0000 H       1  UNL1        0.0290
     65 H           6.8683    3.2174    0.0000 H       1  UNL1        0.0597
     66 H          11.5850   -1.6277    0.0000 H       1  UNL1        0.0746
     67 H          11.5832   -2.4574    0.0000 H       1  UNL1        0.0746
     68 H          14.0871   -1.1834    0.0000 H       1  UNL1        0.0689
     69 H           5.1350    3.2174    0.0000 H       1  UNL1        0.0910
     70 H           5.3471    1.0148    0.0000 H       1  UNL1        0.0340
     71 H           5.7456    1.7051    0.0000 H       1  UNL1        0.0340
     72 H           4.8059    0.7874    0.0000 H       1  UNL1        0.0624
     73 H           3.4030    3.2174    0.0000 H       1  UNL1        0.0621
     74 H           3.4030    0.9774    0.0000 H       1  UNL1        0.0645
     75 H           2.8469    3.6344    0.0000 H       1  UNL1        0.0255
     76 H           2.0000    3.4074    0.0000 H       1  UNL1        0.0255
     77 H           2.2269    2.5605    0.0000 H       1  UNL1        0.0255
     78 H           2.0000    1.4074    0.0000 H       1  UNL1        0.2100
     79 H           3.0930    0.1344    0.0000 H       1  UNL1        0.0524
     80 H           2.8660   -0.7126    0.0000 H       1  UNL1        0.0524
     81 H           3.7130   -0.9395    0.0000 H       1  UNL1        0.0524
@<TRIPOS>BOND
     1     8     1    1
     2     9     1    1
     3    27     2    1
     4    31     2    1
     5     3    28    1
     6     3    30    1
     7     4    31    1
     8     4    34    1
     9     5    30    2
    10    33     6    1
    11     6    37    1
    12    35     7    1
    13     7    78    1
    14     8     9    1
    15     8    10    1
    16     8    13    1
    17     9    11    1
    18     9    14    1
    19    10    15    1
    20    10    16    1
    21    10    21    1
    22    11    12    1
    23    11    17    1
    24    11    38    1
    25    12    18    1
    26    12    22    1
    27    12    24    1
    28    13    19    1
    29    13    39    1
    30    13    40    1
    31    14    20    1
    32    14    41    1
    33    14    42    1
    34    15    19    1
    35    15    25    1
    36    15    43    1
    37    16    17    1
    38    16    44    1
    39    16    45    1
    40    17    46    1
    41    17    47    1
    42    18    20    1
    43    18    23    1
    44    18    48    1
    45    19    49    1
    46    19    50    1
    47    20    51    1
    48    20    52    1
    49    21    53    1
    50    21    54    1
    51    21    55    1
    52    22    26    1
    53    22    56    1
    54    22    57    1
    55    23    27    1
    56    23    58    1
    57    23    59    1
    58    24    60    1
    59    24    61    1
    60    24    62    1
    61    25    28    1
    62    25    29    2
    63    26    27    1
    64    26    63    1
    65    26    64    1
    66    27    65    1
    67    28    66    1
    68    28    67    1
    69    29    30    1
    70    29    68    1
    71    31    32    1
    72    31    69    1
    73    32    33    1
    74    32    70    1
    75    32    71    1
    76    33    35    1
    77    33    72    1
    78    34    35    1
    79    34    36    1
    80    34    73    1
    81    35    74    1
    82    36    75    1
    83    36    76    1
    84    36    77    1
    85    37    79    1
    86    37    80    1
    87    37    81    1
