@<TRIPOS>MOLECULE
IMPHY016397
 25 25 0 0 0
SMALL
GASTEIGER

@<TRIPOS>ATOM
      1 O           2.0000   -1.6900    0.0000 O.3     1  UNL1       -0.5068
      2 C           3.7320    1.3100    0.0000 C.3     1  UNL1       -0.0126
      3 C           3.7320    0.3100    0.0000 C.ar    1  UNL1       -0.0385
      4 C           3.7320    2.3100    0.0000 C.3     1  UNL1       -0.0560
      5 C           4.7320    1.3100    0.0000 C.3     1  UNL1       -0.0560
      6 C           2.7320    1.3100    0.0000 C.3     1  UNL1       -0.0560
      7 C           2.8660   -0.1900    0.0000 C.ar    1  UNL1       -0.0165
      8 C           4.5981   -0.1900    0.0000 C.ar    1  UNL1       -0.0578
      9 C           2.8660   -1.1900    0.0000 C.ar    1  UNL1        0.1171
     10 C           4.5981   -1.1900    0.0000 C.ar    1  UNL1       -0.0580
     11 C           3.7320   -1.6900    0.0000 C.ar    1  UNL1       -0.0202
     12 H           4.3520    2.3100    0.0000 H       1  UNL1        0.0238
     13 H           3.7320    2.9300    0.0000 H       1  UNL1        0.0238
     14 H           3.1120    2.3100    0.0000 H       1  UNL1        0.0238
     15 H           4.7320    0.6900    0.0000 H       1  UNL1        0.0238
     16 H           5.3520    1.3100    0.0000 H       1  UNL1        0.0238
     17 H           4.7320    1.9300    0.0000 H       1  UNL1        0.0238
     18 H           2.7320    1.9300    0.0000 H       1  UNL1        0.0238
     19 H           2.1120    1.3100    0.0000 H       1  UNL1        0.0238
     20 H           2.7320    0.6900    0.0000 H       1  UNL1        0.0238
     21 H           2.3291    0.1200    0.0000 H       1  UNL1        0.0657
     22 H           5.1350    0.1200    0.0000 H       1  UNL1        0.0620
     23 H           5.1350   -1.5000    0.0000 H       1  UNL1        0.0619
     24 H           3.7320   -2.3100    0.0000 H       1  UNL1        0.0654
     25 H           2.0000   -2.3100    0.0000 H       1  UNL1        0.2921
@<TRIPOS>BOND
     1     1     9    1
     2     1    25    1
     3     2     3    1
     4     2     4    1
     5     2     5    1
     6     2     6    1
     7     3     7   ar
     8     3     8   ar
     9     4    12    1
    10     4    13    1
    11     4    14    1
    12     5    15    1
    13     5    16    1
    14     5    17    1
    15     6    18    1
    16     6    19    1
    17     6    20    1
    18     7     9   ar
    19     7    21    1
    20     8    10   ar
    21     8    22    1
    22     9    11   ar
    23    10    11   ar
    24    10    23    1
    25    11    24    1
