@<TRIPOS>MOLECULE
IMPHY014116
 36 37 0 0 0
SMALL
GASTEIGER

@<TRIPOS>ATOM
      1 O           4.5878   -0.8760    0.0000 O.3     1  UNL1       -0.3656
      2 C           4.0000   -0.0670    0.0000 C.3     1  UNL1        0.0957
      3 C           3.5000    0.7990    0.0000 C.3     1  UNL1       -0.0017
      4 C           4.5878    0.7420    0.0000 C.3     1  UNL1       -0.0170
      5 C           2.5000    0.7990    0.0000 C.3     1  UNL1       -0.0415
      6 C           3.5000   -0.9330    0.0000 C.2     1  UNL1       -0.0447
      7 C           5.5388    0.4330    0.0000 C.3     1  UNL1       -0.0239
      8 C           5.5388   -0.5670    0.0000 C.3     1  UNL1        0.0572
      9 C           2.0000   -0.0670    0.0000 C.3     1  UNL1       -0.0338
     10 C           3.5000    1.7990    0.0000 C.3     1  UNL1       -0.0569
     11 C           4.2660    1.4418    0.0000 C.3     1  UNL1       -0.0569
     12 C           2.5000   -0.9330    0.0000 C.2     1  UNL1       -0.0823
     13 C           4.0000   -1.7990    0.0000 C.3     1  UNL1       -0.0411
     14 C           6.3479   -1.1548    0.0000 C.3     1  UNL1       -0.0387
     15 H           4.8400    1.3084    0.0000 H       1  UNL1        0.0297
     16 H           4.0508    1.0520    0.0000 H       1  UNL1        0.0297
     17 H           2.6077    1.4096    0.0000 H       1  UNL1        0.0274
     18 H           1.9174    1.0111    0.0000 H       1  UNL1        0.0274
     19 H           6.1554    0.3682    0.0000 H       1  UNL1        0.0291
     20 H           5.6678    1.0395    0.0000 H       1  UNL1        0.0291
     21 H           5.4418   -1.1793    0.0000 H       1  UNL1        0.0593
     22 H           1.5250    0.3315    0.0000 H       1  UNL1        0.0308
     23 H           1.5250   -0.4655    0.0000 H       1  UNL1        0.0308
     24 H           4.1200    1.7990    0.0000 H       1  UNL1        0.0236
     25 H           3.5000    2.4190    0.0000 H       1  UNL1        0.0236
     26 H           2.8800    1.7990    0.0000 H       1  UNL1        0.0236
     27 H           4.6646    0.9669    0.0000 H       1  UNL1        0.0236
     28 H           4.7410    1.8404    0.0000 H       1  UNL1        0.0236
     29 H           3.8675    1.9168    0.0000 H       1  UNL1        0.0236
     30 H           2.1900   -1.4700    0.0000 H       1  UNL1        0.0572
     31 H           3.4631   -2.1090    0.0000 H       1  UNL1        0.0275
     32 H           4.3100   -2.3360    0.0000 H       1  UNL1        0.0275
     33 H           4.5369   -1.4890    0.0000 H       1  UNL1        0.0275
     34 H           5.9834   -1.6564    0.0000 H       1  UNL1        0.0255
     35 H           6.8494   -1.5192    0.0000 H       1  UNL1        0.0255
     36 H           6.7123   -0.6532    0.0000 H       1  UNL1        0.0255
@<TRIPOS>BOND
     1     2     1    1
     2     1     8    1
     3     2     3    1
     4     2     4    1
     5     2     6    1
     6     3     5    1
     7     3    10    1
     8     3    11    1
     9     4     7    1
    10     4    15    1
    11     4    16    1
    12     5     9    1
    13     5    17    1
    14     5    18    1
    15     6    12    2
    16     6    13    1
    17     7     8    1
    18     7    19    1
    19     7    20    1
    20     8    14    1
    21     8    21    1
    22     9    12    1
    23     9    22    1
    24     9    23    1
    25    10    24    1
    26    10    25    1
    27    10    26    1
    28    11    27    1
    29    11    28    1
    30    11    29    1
    31    12    30    1
    32    13    31    1
    33    13    32    1
    34    13    33    1
    35    14    34    1
    36    14    35    1
    37    14    36    1
