@<TRIPOS>MOLECULE
IMPHY000925
 58 63 0 0 0
SMALL
GASTEIGER

@<TRIPOS>ATOM
      1 O           3.5256    1.6272    0.0000 O.3     1  UNL1       -0.3598
      2 O           5.3320   -0.0949    0.0000 O.3     1  UNL1       -0.3869
      3 N           2.7884    0.0415    0.0000 N.3     1  UNL1       -0.2744
      4 C           4.6631    0.0053    0.0000 C.3     1  UNL1        0.0174
      5 C           5.5731    0.5122    0.0000 C.3     1  UNL1       -0.0226
      6 C           4.6551   -1.0363    0.0000 C.3     1  UNL1       -0.0249
      7 C           6.4392    0.0122    0.0000 C.3     1  UNL1        0.0041
      8 C           3.7197   -1.5860    0.0000 C.3     1  UNL1       -0.0158
      9 C           3.7363    0.5694    0.0000 C.3     1  UNL1        0.1182
     10 C           5.5572   -1.5571    0.0000 C.3     1  UNL1       -0.0484
     11 C           6.4552   -1.0293    0.0000 C.3     1  UNL1       -0.0442
     12 C           6.1126   -0.4647    0.0000 C.3     1  UNL1       -0.0432
     13 C           5.5731    1.5122    0.0000 C.3     1  UNL1       -0.0424
     14 C           7.3052    0.5122    0.0000 C.3     1  UNL1       -0.0439
     15 C           6.4392    2.0122    0.0000 C.3     1  UNL1       -0.0174
     16 C           6.0392    0.6122    0.0000 C.3     1  UNL1        0.0821
     17 C           2.7800   -1.0435    0.0000 C.3     1  UNL1        0.0070
     18 C           4.8276   -2.6322    0.0000 C.3     1  UNL1       -0.0462
     19 C           6.2075   -1.9856    0.0000 C.3     1  UNL1       -0.0519
     20 C           7.3052    1.5122    0.0000 C.3     1  UNL1       -0.0458
     21 C           6.0392    1.4122    0.0000 C.2     1  UNL1       -0.0449
     22 C           3.1224   -2.3880    0.0000 C.3     1  UNL1       -0.0581
     23 C           2.0000    0.7775    0.0000 C.3     1  UNL1        0.0247
     24 C           2.4547    1.7555    0.0000 C.3     1  UNL1        0.0625
     25 C           5.3320    2.1193    0.0000 C.2     1  UNL1       -0.0967
     26 H           4.8370    0.9372    0.0000 H       1  UNL1        0.0314
     27 H           4.6485   -1.8862    0.0000 H       1  UNL1        0.0313
     28 H           4.2444    0.9248    0.0000 H       1  UNL1        0.0775
     29 H           5.1599   -2.0331    0.0000 H       1  UNL1        0.0268
     30 H           5.9581   -2.0300    0.0000 H       1  UNL1        0.0268
     31 H           6.6732   -1.6097    0.0000 H       1  UNL1        0.0272
     32 H           7.0644   -0.9138    0.0000 H       1  UNL1        0.0272
     33 H           6.7314   -0.5038    0.0000 H       1  UNL1        0.0272
     34 H           6.2287    0.1443    0.0000 H       1  UNL1        0.0272
     35 H           5.3611    2.0948    0.0000 H       1  UNL1        0.0274
     36 H           4.9626    1.4045    0.0000 H       1  UNL1        0.0274
     37 H           7.5172   -0.0704    0.0000 H       1  UNL1        0.0272
     38 H           7.9158    0.6198    0.0000 H       1  UNL1        0.0272
     39 H           6.4392    2.8622    0.0000 H       1  UNL1        0.0346
     40 H           6.6326    0.7918    0.0000 H       1  UNL1        0.0646
     41 H           2.1700   -0.9327    0.0000 H       1  UNL1        0.0433
     42 H           2.5665   -1.6256    0.0000 H       1  UNL1        0.0433
     43 H           4.3490   -3.0262    0.0000 H       1  UNL1        0.0271
     44 H           5.1588   -3.1563    0.0000 H       1  UNL1        0.0271
     45 H           6.3983   -2.5755    0.0000 H       1  UNL1        0.0266
     46 H           6.8166   -1.8700    0.0000 H       1  UNL1        0.0266
     47 H           7.9158    1.4045    0.0000 H       1  UNL1        0.0271
     48 H           7.5172    2.0948    0.0000 H       1  UNL1        0.0271
     49 H           2.6251   -2.0176    0.0000 H       1  UNL1        0.0236
     50 H           2.7520   -2.8852    0.0000 H       1  UNL1        0.0236
     51 H           3.6196   -2.7583    0.0000 H       1  UNL1        0.0236
     52 H           1.4684    1.0965    0.0000 H       1  UNL1        0.0450
     53 H           1.6269    0.2823    0.0000 H       1  UNL1        0.0450
     54 H           2.5928    2.3600    0.0000 H       1  UNL1        0.0573
     55 H           1.8681    1.9564    0.0000 H       1  UNL1        0.0573
     56 H           5.4925   -0.6938    0.0000 H       1  UNL1        0.2102
     57 H           5.4925    2.7182    0.0000 H       1  UNL1        0.0535
     58 H           4.7332    1.9588    0.0000 H       1  UNL1        0.0535
@<TRIPOS>BOND
     1     1     9    1
     2     1    24    1
     3    16     2    1
     4     2    56    1
     5     3     9    1
     6     3    17    1
     7     3    23    1
     8     4     5    1
     9     4     6    1
    10     4     9    1
    11     4    12    1
    12     5     7    1
    13     5    13    1
    14     5    26    1
    15     6     8    1
    16     6    10    1
    17     6    27    1
    18     7    11    1
    19     7    14    1
    20     7    16    1
    21     8    17    1
    22     8    18    1
    23     8    22    1
    24     9    28    1
    25    10    11    1
    26    10    29    1
    27    10    30    1
    28    11    31    1
    29    11    32    1
    30    12    19    1
    31    12    33    1
    32    12    34    1
    33    13    15    1
    34    13    35    1
    35    13    36    1
    36    14    20    1
    37    14    37    1
    38    14    38    1
    39    15    20    1
    40    15    21    1
    41    15    39    1
    42    16    21    1
    43    16    40    1
    44    17    41    1
    45    17    42    1
    46    18    19    1
    47    18    43    1
    48    18    44    1
    49    19    45    1
    50    19    46    1
    51    20    47    1
    52    20    48    1
    53    21    25    2
    54    22    49    1
    55    22    50    1
    56    22    51    1
    57    23    24    1
    58    23    52    1
    59    23    53    1
    60    24    54    1
    61    24    55    1
    62    25    57    1
    63    25    58    1
