@<TRIPOS>MOLECULE
IMPHY005499
 104 109 0 0 0
SMALL
GASTEIGER

@<TRIPOS>ATOM
      1 O           6.8671   -3.1941    0.0000 O.3     1  UNL1       -0.3418
      2 O           5.0597   -2.1413    0.0000 O.3     1  UNL1       -0.3892
      3 O           9.3896    3.1048    0.0000 O.3     1  UNL1       -0.3941
      4 O           9.3112   -2.5024    0.0000 O.3     1  UNL1       -0.4802
      5 O           8.6209    6.0853    0.0000 O.3     1  UNL1       -0.4802
      6 O           9.2979   -0.7705    0.0000 O.2     1  UNL1       -0.2503
      7 O           9.5042    4.5954    0.0000 O.2     1  UNL1       -0.2504
      8 O           5.1350   -3.1941    0.0000 O.3     1  UNL1       -0.3405
      9 O           6.8671   -5.1941    0.0000 O.3     1  UNL1       -0.3841
     10 O           5.1350   -6.1941    0.0000 O.3     1  UNL1       -0.3864
     11 O           3.4030   -5.1941    0.0000 O.3     1  UNL1       -0.3865
     12 O           2.5369   -3.6941    0.0000 O.3     1  UNL1       -0.3924
     13 C           7.7681    1.5061    0.0000 C.3     1  UNL1       -0.0170
     14 C           6.9040    1.0028    0.0000 C.3     1  UNL1       -0.0256
     15 C           6.8920   -0.0388    0.0000 C.3     1  UNL1       -0.0221
     16 C           7.7643    2.5061    0.0000 C.3     1  UNL1        0.0208
     17 C           7.7920   -0.5631    0.0000 C.3     1  UNL1       -0.0172
     18 C           8.6801    1.0028    0.0000 C.3     1  UNL1       -0.0462
     19 C           6.8963    3.0027    0.0000 C.2     1  UNL1       -0.0604
     20 C           8.6921   -0.0388    0.0000 C.3     1  UNL1       -0.0481
     21 C           7.8046   -1.6480    0.0000 C.3     1  UNL1        0.0966
     22 C           6.8762    4.0442    0.0000 C.3     1  UNL1       -0.0031
     23 C           6.0361    1.4994    0.0000 C.3     1  UNL1       -0.0306
     24 C           5.9421   -0.5631    0.0000 C.3     1  UNL1       -0.0184
     25 C           8.6723    3.0164    0.0000 C.3     1  UNL1       -0.0400
     26 C           7.7722    4.5754    0.0000 C.3     1  UNL1        0.0741
     27 C           8.7522    1.6835    0.0000 C.3     1  UNL1       -0.0584
     28 C           8.6763    4.0580    0.0000 C.3     1  UNL1       -0.0358
     29 C           6.8671   -2.1941    0.0000 C.3     1  UNL1        0.1033
     30 C           6.0322    2.4994    0.0000 C.2     1  UNL1       -0.0836
     31 C           5.9295   -1.6480    0.0000 C.3     1  UNL1        0.0830
     32 C           6.0279    0.4645    0.0000 C.3     1  UNL1       -0.0589
     33 C           8.7497    2.3362    0.0000 C.3     1  UNL1        0.0540
     34 C           5.9223    4.5611    0.0000 C.3     1  UNL1       -0.0403
     35 C           7.7764    5.6604    0.0000 C.3     1  UNL1       -0.0362
     36 C           5.9014    5.6459    0.0000 C.3     1  UNL1       -0.0343
     37 C           6.8347    6.1992    0.0000 C.3     1  UNL1       -0.0468
     38 C           8.3113   -2.5102    0.0000 C.3     1  UNL1       -0.0466
     39 C           8.8046   -1.6403    0.0000 C.2     1  UNL1        0.3136
     40 C           8.6324    5.0854    0.0000 C.2     1  UNL1        0.3115
     41 C           5.3881    6.5041    0.0000 C.3     1  UNL1       -0.0598
     42 C           4.9015    5.6305    0.0000 C.3     1  UNL1       -0.0598
     43 C           6.0010   -3.6941    0.0000 C.3     1  UNL1        0.1884
     44 C           6.0010   -4.6941    0.0000 C.3     1  UNL1        0.1341
     45 C           5.1350   -5.1941    0.0000 C.3     1  UNL1        0.1141
     46 C           4.2690   -3.6941    0.0000 C.3     1  UNL1        0.1130
     47 C           4.2690   -4.6941    0.0000 C.3     1  UNL1        0.1119
     48 C           3.4030   -3.1941    0.0000 C.3     1  UNL1        0.0730
     49 H           7.6385    0.5749    0.0000 H       1  UNL1        0.0315
     50 H           8.5314   -0.9824    0.0000 H       1  UNL1        0.0317
     51 H           9.2921    0.9037    0.0000 H       1  UNL1        0.0271
     52 H           8.8824    1.5888    0.0000 H       1  UNL1        0.0271
     53 H           8.9079   -0.6200    0.0000 H       1  UNL1        0.0269
     54 H           9.3017    0.0743    0.0000 H       1  UNL1        0.0269
     55 H           6.1502    3.6023    0.0000 H       1  UNL1        0.0357
     56 H           5.4251    1.6047    0.0000 H       1  UNL1        0.0310
     57 H           5.8263    0.9160    0.0000 H       1  UNL1        0.0310
     58 H           5.7398    0.0230    0.0000 H       1  UNL1        0.0296
     59 H           5.3300   -0.6621    0.0000 H       1  UNL1        0.0296
     60 H           8.8791    2.4319    0.0000 H       1  UNL1        0.0275
     61 H           9.2836    3.1202    0.0000 H       1  UNL1        0.0275
     62 H           8.8623    1.0734    0.0000 H       1  UNL1        0.0235
     63 H           9.3624    1.7936    0.0000 H       1  UNL1        0.0235
     64 H           8.6422    2.2937    0.0000 H       1  UNL1        0.0235
     65 H           9.2868    3.9496    0.0000 H       1  UNL1        0.0276
     66 H           8.8876    4.6409    0.0000 H       1  UNL1        0.0276
     67 H           7.4046   -2.5031    0.0000 H       1  UNL1        0.0634
     68 H           5.4941    2.8073    0.0000 H       1  UNL1        0.0572
     69 H           5.3956   -1.3329    0.0000 H       1  UNL1        0.0619
     70 H           6.3400    1.0003    0.0000 H       1  UNL1        0.0235
     71 H           5.4922    0.7766    0.0000 H       1  UNL1        0.0235
     72 H           5.7158   -0.0712    0.0000 H       1  UNL1        0.0235
     73 H           8.5399    1.7528    0.0000 H       1  UNL1        0.0566
     74 H           9.2879    2.0283    0.0000 H       1  UNL1        0.0566
     75 H           5.3095    4.6554    0.0000 H       1  UNL1        0.0276
     76 H           5.7246    3.9735    0.0000 H       1  UNL1        0.0276
     77 H           8.3869    5.5519    0.0000 H       1  UNL1        0.0276
     78 H           7.9877    6.2433    0.0000 H       1  UNL1        0.0276
     79 H           7.2302    6.6767    0.0000 H       1  UNL1        0.0271
     80 H           6.4319    6.6706    0.0000 H       1  UNL1        0.0271
     81 H           7.7767   -2.8243    0.0000 H       1  UNL1        0.0241
     82 H           8.6254   -3.0447    0.0000 H       1  UNL1        0.0241
     83 H           8.8458   -2.1960    0.0000 H       1  UNL1        0.0241
     84 H           4.8920    6.2504    0.0000 H       1  UNL1        0.0235
     85 H           4.2816    5.6209    0.0000 H       1  UNL1        0.0235
     86 H           4.9111    5.0106    0.0000 H       1  UNL1        0.0235
     87 H           5.9202    6.8224    0.0000 H       1  UNL1        0.0235
     88 H           5.0699    7.0362    0.0000 H       1  UNL1        0.0235
     89 H           4.8560    6.1859    0.0000 H       1  UNL1        0.0235
     90 H           4.5251   -1.8272    0.0000 H       1  UNL1        0.2099
     91 H          10.0006    2.9994    0.0000 H       1  UNL1        0.2094
     92 H           6.0010   -3.0741    0.0000 H       1  UNL1        0.0938
     93 H           9.9312   -2.4977    0.0000 H       1  UNL1        0.2951
     94 H           9.1542    6.4015    0.0000 H       1  UNL1        0.2951
     95 H           6.0010   -5.3141    0.0000 H       1  UNL1        0.0671
     96 H           4.5981   -5.5041    0.0000 H       1  UNL1        0.0648
     97 H           4.2690   -3.0741    0.0000 H       1  UNL1        0.0647
     98 H           3.7320   -4.3841    0.0000 H       1  UNL1        0.0647
     99 H           6.8671   -5.8141    0.0000 H       1  UNL1        0.2101
    100 H           3.8015   -2.7192    0.0000 H       1  UNL1        0.0584
    101 H           3.0044   -2.7192    0.0000 H       1  UNL1        0.0584
    102 H           4.5981   -6.5041    0.0000 H       1  UNL1        0.2100
    103 H           3.4030   -5.8141    0.0000 H       1  UNL1        0.2100
    104 H           2.0000   -3.3841    0.0000 H       1  UNL1        0.2095
@<TRIPOS>BOND
     1    29     1    1
     2    43     1    1
     3    31     2    1
     4     2    90    1
     5     3    33    1
     6     3    91    1
     7     4    39    1
     8     4    93    1
     9     5    40    1
    10     5    94    1
    11     6    39    2
    12     7    40    2
    13     8    43    1
    14     8    46    1
    15    44     9    1
    16     9    99    1
    17    45    10    1
    18    10   102    1
    19    47    11    1
    20    11   103    1
    21    12    48    1
    22    12   104    1
    23    13    14    1
    24    13    16    1
    25    13    18    1
    26    13    27    1
    27    14    15    1
    28    14    23    1
    29    14    49    1
    30    15    17    1
    31    15    24    1
    32    15    32    1
    33    16    19    1
    34    16    25    1
    35    16    33    1
    36    17    20    1
    37    17    21    1
    38    17    50    1
    39    18    20    1
    40    18    51    1
    41    18    52    1
    42    19    22    1
    43    19    30    2
    44    20    53    1
    45    20    54    1
    46    21    29    1
    47    21    38    1
    48    21    39    1
    49    22    26    1
    50    22    34    1
    51    22    55    1
    52    23    30    1
    53    23    56    1
    54    23    57    1
    55    24    31    1
    56    24    58    1
    57    24    59    1
    58    25    28    1
    59    25    60    1
    60    25    61    1
    61    26    28    1
    62    26    35    1
    63    26    40    1
    64    27    62    1
    65    27    63    1
    66    27    64    1
    67    28    65    1
    68    28    66    1
    69    29    31    1
    70    29    67    1
    71    30    68    1
    72    31    69    1
    73    32    70    1
    74    32    71    1
    75    32    72    1
    76    33    73    1
    77    33    74    1
    78    34    36    1
    79    34    75    1
    80    34    76    1
    81    35    37    1
    82    35    77    1
    83    35    78    1
    84    36    37    1
    85    36    41    1
    86    36    42    1
    87    37    79    1
    88    37    80    1
    89    38    81    1
    90    38    82    1
    91    38    83    1
    92    41    87    1
    93    41    88    1
    94    41    89    1
    95    42    84    1
    96    42    85    1
    97    42    86    1
    98    43    44    1
    99    43    92    1
   100    44    45    1
   101    44    95    1
   102    45    47    1
   103    45    96    1
   104    46    47    1
   105    46    48    1
   106    46    97    1
   107    47    98    1
   108    48   100    1
   109    48   101    1
