@<TRIPOS>MOLECULE
IMPHY001574
 20 21 0 0 0
SMALL
GASTEIGER

@<TRIPOS>ATOM
      1 O           2.8090    0.3849    0.0000 O.2     1  UNL1       -0.4660
      2 N           4.7770   -0.3145    0.0000 N.ar    1  UNL1       -0.3460
      3 C           4.5691    0.6636    0.0000 C.3     1  UNL1        0.0806
      4 C           3.6180    0.9726    0.0000 C.ar    1  UNL1        0.1244
      5 C           4.1079   -1.0577    0.0000 C.ar    1  UNL1        0.0051
      6 C           5.6906   -0.7213    0.0000 C.ar    1  UNL1        0.0051
      7 C           3.3090    1.9237    0.0000 C.ar    1  UNL1       -0.0189
      8 C           4.6079   -1.9237    0.0000 C.ar    1  UNL1       -0.0442
      9 C           5.5860   -1.7158    0.0000 C.ar    1  UNL1       -0.0442
     10 C           2.3090    1.9237    0.0000 C.ar    1  UNL1       -0.0236
     11 C           2.0000    0.9726    0.0000 C.ar    1  UNL1        0.0922
     12 H           5.1887    0.6853    0.0000 H       1  UNL1        0.0572
     13 H           4.6554    1.2776    0.0000 H       1  UNL1        0.0572
     14 H           3.4913   -0.9929    0.0000 H       1  UNL1        0.0809
     15 H           6.2275   -0.4113    0.0000 H       1  UNL1        0.0809
     16 H           3.6734    2.4253    0.0000 H       1  UNL1        0.0652
     17 H           4.3557   -2.4901    0.0000 H       1  UNL1        0.0632
     18 H           6.0468   -2.1306    0.0000 H       1  UNL1        0.0632
     19 H           1.9446    2.4253    0.0000 H       1  UNL1        0.0649
     20 H           1.4103    0.7810    0.0000 H       1  UNL1        0.1029
@<TRIPOS>BOND
     1     1     4   ar
     2     1    11   ar
     3     2     3    1
     4     2     5   ar
     5     2     6   ar
     6     3     4    1
     7     3    12    1
     8     3    13    1
     9     4     7   ar
    10     5     8   ar
    11     5    14    1
    12     6     9   ar
    13     6    15    1
    14     7    10   ar
    15     7    16    1
    16     8     9   ar
    17     8    17    1
    18     9    18    1
    19    10    11   ar
    20    10    19    1
    21    11    20    1
