@<TRIPOS>MOLECULE
IMPHY009363
 40 41 0 0 0
SMALL
GASTEIGER

@<TRIPOS>ATOM
      1 O           5.3147    0.9424    0.0000 O.2     1  UNL1       -0.2973
      2 N           2.6691   -0.4643    0.0000 N.3     1  UNL1       -0.3020
      3 N           7.9128   -0.5576    0.0000 N.3     1  UNL1       -0.3128
      4 C           3.5827   -0.0576    0.0000 C.3     1  UNL1        0.0168
      5 C           3.4782    0.9370    0.0000 C.3     1  UNL1       -0.0358
      6 C           2.5000    1.1449    0.0000 C.3     1  UNL1       -0.0388
      7 C           7.0468   -0.0576    0.0000 C.3     1  UNL1        0.0143
      8 C           4.4487   -0.5576    0.0000 C.3     1  UNL1        0.0215
      9 C           2.0000    0.2788    0.0000 C.3     1  UNL1       -0.0011
     10 C           7.0468    0.9424    0.0000 C.3     1  UNL1       -0.0371
     11 C           6.1808   -0.5576    0.0000 C.3     1  UNL1        0.0213
     12 C           7.9128    1.4424    0.0000 C.3     1  UNL1       -0.0505
     13 C           5.3147   -0.0576    0.0000 C.2     1  UNL1        0.1363
     14 C           8.7788    0.9424    0.0000 C.3     1  UNL1       -0.0404
     15 C           8.7788   -0.0576    0.0000 C.3     1  UNL1       -0.0038
     16 C           2.4612   -1.4424    0.0000 C.3     1  UNL1       -0.0125
     17 H           3.5502   -0.6767    0.0000 H       1  UNL1        0.0466
     18 H           4.0982    0.9370    0.0000 H       1  UNL1        0.0281
     19 H           3.5430    1.5536    0.0000 H       1  UNL1        0.0281
     20 H           7.0468   -0.6776    0.0000 H       1  UNL1        0.0464
     21 H           2.6916    1.7345    0.0000 H       1  UNL1        0.0278
     22 H           1.9336    1.3970    0.0000 H       1  UNL1        0.0278
     23 H           4.0502   -1.0325    0.0000 H       1  UNL1        0.0357
     24 H           4.8472   -1.0325    0.0000 H       1  UNL1        0.0357
     25 H           1.4984    0.6433    0.0000 H       1  UNL1        0.0426
     26 H           1.5851   -0.1819    0.0000 H       1  UNL1        0.0426
     27 H           6.8347    1.5250    0.0000 H       1  UNL1        0.0280
     28 H           6.4362    0.8348    0.0000 H       1  UNL1        0.0280
     29 H           5.7822   -1.0325    0.0000 H       1  UNL1        0.0357
     30 H           6.5793   -1.0325    0.0000 H       1  UNL1        0.0357
     31 H           8.3113    1.9174    0.0000 H       1  UNL1        0.0266
     32 H           7.5143    1.9174    0.0000 H       1  UNL1        0.0266
     33 H           9.3894    0.8348    0.0000 H       1  UNL1        0.0277
     34 H           8.9909    1.5250    0.0000 H       1  UNL1        0.0277
     35 H           7.9128   -1.1776    0.0000 H       1  UNL1        0.1222
     36 H           8.9909   -0.6402    0.0000 H       1  UNL1        0.0424
     37 H           9.3894    0.0501    0.0000 H       1  UNL1        0.0424
     38 H           1.8548   -1.3135    0.0000 H       1  UNL1        0.0391
     39 H           2.3323   -2.0489    0.0000 H       1  UNL1        0.0391
     40 H           3.0677   -1.5714    0.0000 H       1  UNL1        0.0391
@<TRIPOS>BOND
     1     1    13    2
     2     2     4    1
     3     2     9    1
     4     2    16    1
     5     3     7    1
     6     3    15    1
     7     3    35    1
     8     4     5    1
     9     4     8    1
    10     4    17    1
    11     5     6    1
    12     5    18    1
    13     5    19    1
    14     6     9    1
    15     6    21    1
    16     6    22    1
    17     7    10    1
    18     7    11    1
    19     7    20    1
    20     8    13    1
    21     8    23    1
    22     8    24    1
    23     9    25    1
    24     9    26    1
    25    10    12    1
    26    10    27    1
    27    10    28    1
    28    11    13    1
    29    11    29    1
    30    11    30    1
    31    12    14    1
    32    12    31    1
    33    12    32    1
    34    14    15    1
    35    14    33    1
    36    14    34    1
    37    15    36    1
    38    15    37    1
    39    16    38    1
    40    16    39    1
    41    16    40    1
