@<TRIPOS>MOLECULE
IMPHY007032
 100 103 0 0 0
SMALL
GASTEIGER

@<TRIPOS>ATOM
      1 O           3.7695    9.9190    0.0000 O.3     1  UNL1       -0.3626
      2 O           9.0037   -9.9190    0.0000 O.3     1  UNL1       -0.3626
      3 O           6.5598    7.0549    0.0000 O.3     1  UNL1       -0.3856
      4 O           5.7584   -7.5828    0.0000 O.3     1  UNL1       -0.3856
      5 C           4.2473    7.9705    0.0000 C.3     1  UNL1        0.1217
      6 C           8.1948   -8.0830    0.0000 C.3     1  UNL1        0.1217
      7 C           9.4438   -7.2616    0.0000 C.3     1  UNL1        0.0028
      8 C           2.8746    7.3784    0.0000 C.3     1  UNL1        0.0028
      9 C           6.7287   -7.8248    0.0000 C.3     1  UNL1        0.0985
     10 C           5.6463    7.4616    0.0000 C.3     1  UNL1        0.0985
     11 C           4.5061    8.9364    0.0000 C.3     1  UNL1        0.0633
     12 C           8.1077   -9.0792    0.0000 C.3     1  UNL1        0.0633
     13 C           2.5326    8.3181    0.0000 C.3     1  UNL1       -0.0183
     14 C           9.9438   -8.1277    0.0000 C.3     1  UNL1       -0.0183
     15 C           5.9051    8.4276    0.0000 C.3     1  UNL1        0.0052
     16 C           6.6416   -8.8210    0.0000 C.3     1  UNL1        0.0052
     17 C           2.0000    6.8936    0.0000 C.3     1  UNL1       -0.0567
     18 C           2.5490    6.4329    0.0000 C.3     1  UNL1       -0.0567
     19 C          10.2210   -6.6323    0.0000 C.3     1  UNL1       -0.0567
     20 C           9.2530   -6.2800    0.0000 C.3     1  UNL1       -0.0567
     21 C           8.2819   -7.0868    0.0000 C.2     1  UNL1       -0.0491
     22 C           3.9885    7.0045    0.0000 C.2     1  UNL1       -0.0491
     23 C           5.8883    6.4914    0.0000 C.3     1  UNL1       -0.0329
     24 C           6.3220   -6.9113    0.0000 C.3     1  UNL1       -0.0329
     25 C           7.5748   -6.3797    0.0000 C.2     1  UNL1       -0.0600
     26 C           4.6956    6.2974    0.0000 C.2     1  UNL1       -0.0600
     27 C           7.8336   -5.4138    0.0000 C.2     1  UNL1       -0.0507
     28 C           4.4368    5.3315    0.0000 C.2     1  UNL1       -0.0507
     29 C           3.4709    5.0727    0.0000 C.3     1  UNL1       -0.0397
     30 C           8.7996   -5.1550    0.0000 C.3     1  UNL1       -0.0397
     31 C           7.1265   -4.7067    0.0000 C.2     1  UNL1       -0.0588
     32 C           5.1439    4.6244    0.0000 C.2     1  UNL1       -0.0588
     33 C           4.8851    3.6585    0.0000 C.2     1  UNL1       -0.0613
     34 C           7.3853   -3.7408    0.0000 C.2     1  UNL1       -0.0613
     35 C           5.5922    2.9514    0.0000 C.2     1  UNL1       -0.0588
     36 C           6.6782   -3.0337    0.0000 C.2     1  UNL1       -0.0588
     37 C           5.3334    1.9854    0.0000 C.2     1  UNL1       -0.0504
     38 C           6.9370   -2.0677    0.0000 C.2     1  UNL1       -0.0504
     39 C           4.3674    1.7266    0.0000 C.3     1  UNL1       -0.0397
     40 C           7.9030   -1.8089    0.0000 C.3     1  UNL1       -0.0397
     41 C           6.0405    1.2783    0.0000 C.2     1  UNL1       -0.0588
     42 C           6.2299   -1.3606    0.0000 C.2     1  UNL1       -0.0588
     43 C           5.7817    0.3124    0.0000 C.2     1  UNL1       -0.0615
     44 C           6.4888   -0.3947    0.0000 C.2     1  UNL1       -0.0615
     45 H           8.0336   -9.9260    0.0000 H       1  UNL1        0.0597
     46 H           4.7261    9.7574    0.0000 H       1  UNL1        0.0597
     47 H          10.2374   -8.6737    0.0000 H       1  UNL1        0.0296
     48 H          10.4854   -7.8258    0.0000 H       1  UNL1        0.0296
     49 H           2.3383    8.9069    0.0000 H       1  UNL1        0.0296
     50 H           1.9468    8.1149    0.0000 H       1  UNL1        0.0296
     51 H           6.4991    8.2498    0.0000 H       1  UNL1        0.0319
     52 H           6.1000    9.0161    0.0000 H       1  UNL1        0.0319
     53 H           6.0257   -8.7491    0.0000 H       1  UNL1        0.0319
     54 H           6.5518   -9.4345    0.0000 H       1  UNL1        0.0319
     55 H           1.6994    7.4359    0.0000 H       1  UNL1        0.0236
     56 H          10.6111   -7.1142    0.0000 H       1  UNL1        0.0236
     57 H          10.7028   -6.2421    0.0000 H       1  UNL1        0.0236
     58 H           9.8308   -6.1505    0.0000 H       1  UNL1        0.0236
     59 H           9.8616   -6.1617    0.0000 H       1  UNL1        0.0236
     60 H           9.1347   -5.6714    0.0000 H       1  UNL1        0.0236
     61 H           8.6444   -6.3983    0.0000 H       1  UNL1        0.0236
     62 H           1.4577    6.5930    0.0000 H       1  UNL1        0.0236
     63 H           2.3006    6.3514    0.0000 H       1  UNL1        0.0236
     64 H           1.9628    6.6348    0.0000 H       1  UNL1        0.0236
     65 H           2.3472    5.8467    0.0000 H       1  UNL1        0.0236
     66 H           3.1353    6.2311    0.0000 H       1  UNL1        0.0236
     67 H           3.5500    6.5662    0.0000 H       1  UNL1        0.0602
     68 H           8.8808   -6.9264    0.0000 H       1  UNL1        0.0602
     69 H           6.8884   -6.6591    0.0000 H       1  UNL1        0.0258
     70 H           5.2867    6.3413    0.0000 H       1  UNL1        0.0258
     71 H           6.0383    5.8898    0.0000 H       1  UNL1        0.0258
     72 H           6.4898    6.6414    0.0000 H       1  UNL1        0.0258
     73 H           6.0698   -6.3449    0.0000 H       1  UNL1        0.0258
     74 H           5.7556   -7.1635    0.0000 H       1  UNL1        0.0258
     75 H           7.0614    7.4193    0.0000 H       1  UNL1        0.2103
     76 H           5.3277   -8.0288    0.0000 H       1  UNL1        0.2103
     77 H           5.3132    6.2434    0.0000 H       1  UNL1        0.0618
     78 H           6.9572   -6.3256    0.0000 H       1  UNL1        0.0618
     79 H           3.3104    5.6716    0.0000 H       1  UNL1        0.0278
     80 H           2.8720    4.9122    0.0000 H       1  UNL1        0.0278
     81 H           3.6313    4.4738    0.0000 H       1  UNL1        0.0278
     82 H           8.9600   -5.7539    0.0000 H       1  UNL1        0.0278
     83 H           9.3984   -4.9945    0.0000 H       1  UNL1        0.0278
     84 H           8.6391   -4.5561    0.0000 H       1  UNL1        0.0278
     85 H           5.7428    4.7849    0.0000 H       1  UNL1        0.0620
     86 H           6.5277   -4.8672    0.0000 H       1  UNL1        0.0620
     87 H           4.2862    3.4980    0.0000 H       1  UNL1        0.0618
     88 H           7.9842   -3.5803    0.0000 H       1  UNL1        0.0618
     89 H           6.1911    3.1118    0.0000 H       1  UNL1        0.0620
     90 H           6.0794   -3.1941    0.0000 H       1  UNL1        0.0620
     91 H           4.2070    2.3255    0.0000 H       1  UNL1        0.0278
     92 H           3.7686    1.5662    0.0000 H       1  UNL1        0.0278
     93 H           4.5279    1.1277    0.0000 H       1  UNL1        0.0278
     94 H           8.0634   -2.4078    0.0000 H       1  UNL1        0.0278
     95 H           8.5018   -1.6484    0.0000 H       1  UNL1        0.0278
     96 H           7.7425   -1.2100    0.0000 H       1  UNL1        0.0278
     97 H           5.6311   -1.5211    0.0000 H       1  UNL1        0.0620
     98 H           6.6394    1.4388    0.0000 H       1  UNL1        0.0620
     99 H           7.0876   -0.2342    0.0000 H       1  UNL1        0.0618
    100 H           5.1828    0.1519    0.0000 H       1  UNL1        0.0618
@<TRIPOS>BOND
     1     1     5    1
     2     1    11    1
     3     2     6    1
     4     2    12    1
     5    10     3    1
     6     3    75    1
     7     9     4    1
     8     4    76    1
     9     5     8    1
    10     5    10    1
    11     5    22    1
    12     6     7    1
    13     6     9    1
    14     6    21    1
    15     7    14    1
    16     7    19    1
    17     7    20    1
    18     8    13    1
    19     8    17    1
    20     8    18    1
    21     9    16    1
    22     9    24    1
    23    10    15    1
    24    10    23    1
    25    11    13    1
    26    11    15    1
    27    11    46    1
    28    12    14    1
    29    12    16    1
    30    12    45    1
    31    13    49    1
    32    13    50    1
    33    14    47    1
    34    14    48    1
    35    15    51    1
    36    15    52    1
    37    16    53    1
    38    16    54    1
    39    17    55    1
    40    17    62    1
    41    17    63    1
    42    18    64    1
    43    18    65    1
    44    18    66    1
    45    19    56    1
    46    19    57    1
    47    19    58    1
    48    20    59    1
    49    20    60    1
    50    20    61    1
    51    21    25    2
    52    21    68    1
    53    22    26    2
    54    22    67    1
    55    23    70    1
    56    23    71    1
    57    23    72    1
    58    24    69    1
    59    24    73    1
    60    24    74    1
    61    25    27    1
    62    25    78    1
    63    26    28    1
    64    26    77    1
    65    27    30    1
    66    27    31    2
    67    28    29    1
    68    28    32    2
    69    29    79    1
    70    29    80    1
    71    29    81    1
    72    30    82    1
    73    30    83    1
    74    30    84    1
    75    31    34    1
    76    31    86    1
    77    32    33    1
    78    32    85    1
    79    33    35    2
    80    33    87    1
    81    34    36    2
    82    34    88    1
    83    35    37    1
    84    35    89    1
    85    36    38    1
    86    36    90    1
    87    37    39    1
    88    37    41    2
    89    38    40    1
    90    38    42    2
    91    39    91    1
    92    39    92    1
    93    39    93    1
    94    40    94    1
    95    40    95    1
    96    40    96    1
    97    41    43    1
    98    41    98    1
    99    42    44    1
   100    42    97    1
   101    43    44    2
   102    43   100    1
   103    44    99    1
