@<TRIPOS>MOLECULE
IMPHY013453
 56 59 0 0 0
SMALL
GASTEIGER

@<TRIPOS>ATOM
      1 O           5.1350   -1.2857    0.0000 O.3     1  UNL1       -0.3313
      2 O           6.8671   -1.2857    0.0000 O.3     1  UNL1       -0.4532
      3 O           5.1350   -4.2857    0.0000 O.3     1  UNL1       -0.3864
      4 O           3.4030   -3.2857    0.0000 O.3     1  UNL1       -0.3865
      5 O           6.8671   -3.2857    0.0000 O.3     1  UNL1       -0.3829
      6 O           2.5369   -1.7857    0.0000 O.3     1  UNL1       -0.3924
      7 O           7.7331    1.2143    0.0000 O.2     1  UNL1       -0.4470
      8 O           5.1350   -0.2857    0.0000 O.2     1  UNL1       -0.2830
      9 O           7.7549    3.2458    0.0000 O.3     1  UNL1       -0.4885
     10 O           4.2308    1.2112    0.0000 O.3     1  UNL1       -0.5058
     11 O           5.9889    4.2836    0.0000 O.3     1  UNL1       -0.5031
     12 O          11.1972   -1.7857    0.0000 O.3     1  UNL1       -0.5068
     13 C           5.1350   -3.2857    0.0000 C.3     1  UNL1        0.1152
     14 C           4.2690   -2.7857    0.0000 C.3     1  UNL1        0.1120
     15 C           6.0010   -2.7857    0.0000 C.3     1  UNL1        0.1454
     16 C           4.2690   -1.7857    0.0000 C.3     1  UNL1        0.1140
     17 C           6.0010   -1.7857    0.0000 C.3     1  UNL1        0.2311
     18 C           3.4030   -1.2857    0.0000 C.3     1  UNL1        0.0731
     19 C           6.8671   -0.2857    0.0000 C.ar    1  UNL1        0.2138
     20 C           7.7331    0.2143    0.0000 C.ar    1  UNL1        0.1811
     21 C           6.0010    0.2143    0.0000 C.ar    1  UNL1        0.2383
     22 C           6.0010    1.2143    0.0000 C.ar    1  UNL1        0.1128
     23 C           6.8671    1.7143    0.0000 C.ar    1  UNL1        0.1881
     24 C           8.5991   -0.2857    0.0000 C.ar    1  UNL1        0.0213
     25 C           5.0910    1.7212    0.0000 C.ar    1  UNL1        0.1350
     26 C           6.8831    2.7558    0.0000 C.ar    1  UNL1        0.2049
     27 C           5.9851    3.2836    0.0000 C.ar    1  UNL1        0.1657
     28 C           5.0830    2.7628    0.0000 C.ar    1  UNL1        0.0259
     29 C           8.5991   -1.2857    0.0000 C.ar    1  UNL1       -0.0475
     30 C           9.4651    0.2143    0.0000 C.ar    1  UNL1       -0.0475
     31 C           9.4651   -1.7857    0.0000 C.ar    1  UNL1       -0.0195
     32 C          10.3312   -0.2857    0.0000 C.ar    1  UNL1       -0.0195
     33 C          10.3312   -1.2857    0.0000 C.ar    1  UNL1        0.1169
     34 C           7.7664    4.2457    0.0000 C.3     1  UNL1        0.0791
     35 H           4.5981   -3.5957    0.0000 H       1  UNL1        0.0648
     36 H           4.2690   -3.4057    0.0000 H       1  UNL1        0.0647
     37 H           6.0010   -3.4057    0.0000 H       1  UNL1        0.0683
     38 H           4.2690   -1.1657    0.0000 H       1  UNL1        0.0647
     39 H           6.0010   -1.1657    0.0000 H       1  UNL1        0.1084
     40 H           3.8015   -0.8107    0.0000 H       1  UNL1        0.0584
     41 H           3.0044   -0.8107    0.0000 H       1  UNL1        0.0584
     42 H           4.5981   -4.5957    0.0000 H       1  UNL1        0.2100
     43 H           3.4030   -3.9057    0.0000 H       1  UNL1        0.2100
     44 H           6.8671   -3.9057    0.0000 H       1  UNL1        0.2102
     45 H           2.0000   -1.4757    0.0000 H       1  UNL1        0.2095
     46 H           4.5449    3.0707    0.0000 H       1  UNL1        0.0692
     47 H           8.0622   -1.5957    0.0000 H       1  UNL1        0.0626
     48 H           9.4651    0.8343    0.0000 H       1  UNL1        0.0626
     49 H           9.4651   -2.4057    0.0000 H       1  UNL1        0.0654
     50 H          10.8681    0.0243    0.0000 H       1  UNL1        0.0654
     51 H           3.6904    1.5150    0.0000 H       1  UNL1        0.2922
     52 H           5.4532    4.5957    0.0000 H       1  UNL1        0.2923
     53 H           8.3864    4.2386    0.0000 H       1  UNL1        0.0660
     54 H           7.7736    4.8657    0.0000 H       1  UNL1        0.0660
     55 H           7.1465    4.2529    0.0000 H       1  UNL1        0.0660
     56 H          11.1972   -2.4057    0.0000 H       1  UNL1        0.2921
@<TRIPOS>BOND
     1     1    16    1
     2     1    17    1
     3    17     2    1
     4     2    19    1
     5     3    13    1
     6     3    42    1
     7    14     4    1
     8     4    43    1
     9     5    15    1
    10     5    44    1
    11     6    18    1
    12     6    45    1
    13     7    20   ar
    14     7    23   ar
    15     8    21    2
    16     9    26    1
    17     9    34    1
    18    10    25    1
    19    10    51    1
    20    11    27    1
    21    11    52    1
    22    12    33    1
    23    12    56    1
    24    13    14    1
    25    13    15    1
    26    13    35    1
    27    14    16    1
    28    14    36    1
    29    15    17    1
    30    15    37    1
    31    16    18    1
    32    16    38    1
    33    17    39    1
    34    18    40    1
    35    18    41    1
    36    19    20   ar
    37    19    21   ar
    38    20    24    1
    39    21    22   ar
    40    22    23   ar
    41    22    25   ar
    42    23    26   ar
    43    24    29   ar
    44    24    30   ar
    45    25    28   ar
    46    26    27   ar
    47    27    28   ar
    48    28    46    1
    49    29    31   ar
    50    29    47    1
    51    30    32   ar
    52    30    48    1
    53    31    33   ar
    54    31    49    1
    55    32    33   ar
    56    32    50    1
    57    34    53    1
    58    34    54    1
    59    34    55    1
