@<TRIPOS>MOLECULE
IMPHY005172
 33 35 0 0 0
SMALL
GASTEIGER

@<TRIPOS>ATOM
      1 O           4.3009    1.5481    0.0000 O.3     1  UNL1       -0.4564
      2 O           2.7696    2.4108    0.0000 O.2     1  UNL1       -0.2505
      3 C           3.8000    0.1238    0.0000 C.3     1  UNL1        0.0163
      4 C           3.8000   -0.8762    0.0000 C.3     1  UNL1       -0.0278
      5 C           2.9061    0.6585    0.0000 C.3     1  UNL1        0.0632
      6 C           2.9061   -1.4109    0.0000 C.3     1  UNL1       -0.0403
      7 C           4.6660    0.6238    0.0000 C.3     1  UNL1        0.1277
      8 C           2.0000    0.1446    0.0000 C.3     1  UNL1       -0.0395
      9 C           2.0000   -0.8970    0.0000 C.3     1  UNL1       -0.0494
     10 C           4.6660   -1.3762    0.0000 C.3     1  UNL1       -0.0309
     11 C           5.5321    0.1238    0.0000 C.2     1  UNL1       -0.0363
     12 C           3.3073    1.5677    0.0000 C.2     1  UNL1        0.3112
     13 C           5.5321   -0.8762    0.0000 C.2     1  UNL1       -0.0813
     14 C           2.9176   -2.4108    0.0000 C.3     1  UNL1       -0.0621
     15 C           6.3981    0.6238    0.0000 C.3     1  UNL1       -0.0403
     16 H           3.0639   -0.3012    0.0000 H       1  UNL1        0.0351
     17 H           3.8066   -1.7262    0.0000 H       1  UNL1        0.0310
     18 H           2.2756    1.2286    0.0000 H       1  UNL1        0.0417
     19 H           3.4471   -1.7136    0.0000 H       1  UNL1        0.0301
     20 H           5.3097    1.1790    0.0000 H       1  UNL1        0.0785
     21 H           1.7909    0.7283    0.0000 H       1  UNL1        0.0273
     22 H           1.3891    0.0385    0.0000 H       1  UNL1        0.0273
     23 H           1.3891   -0.7909    0.0000 H       1  UNL1        0.0268
     24 H           1.7909   -1.4807    0.0000 H       1  UNL1        0.0268
     25 H           4.2675   -1.8512    0.0000 H       1  UNL1        0.0310
     26 H           5.0646   -1.8512    0.0000 H       1  UNL1        0.0310
     27 H           6.0690   -1.1862    0.0000 H       1  UNL1        0.0573
     28 H           2.2977   -2.4180    0.0000 H       1  UNL1        0.0233
     29 H           2.9248   -3.0308    0.0000 H       1  UNL1        0.0233
     30 H           3.5376   -2.4036    0.0000 H       1  UNL1        0.0233
     31 H           6.7081    0.0869    0.0000 H       1  UNL1        0.0276
     32 H           6.9350    0.9338    0.0000 H       1  UNL1        0.0276
     33 H           6.0881    1.1607    0.0000 H       1  UNL1        0.0276
@<TRIPOS>BOND
     1     1     7    1
     2     1    12    1
     3     2    12    2
     4     3     4    1
     5     3     5    1
     6     3     7    1
     7     3    16    1
     8     4     6    1
     9     4    10    1
    10     4    17    1
    11     5     8    1
    12     5    12    1
    13     5    18    1
    14     6     9    1
    15     6    14    1
    16     6    19    1
    17     7    11    1
    18     7    20    1
    19     8     9    1
    20     8    21    1
    21     8    22    1
    22     9    23    1
    23     9    24    1
    24    10    13    1
    25    10    25    1
    26    10    26    1
    27    11    13    2
    28    11    15    1
    29    13    27    1
    30    14    28    1
    31    14    29    1
    32    14    30    1
    33    15    31    1
    34    15    32    1
    35    15    33    1
