@<TRIPOS>MOLECULE
IMPHY012959
 56 57 0 0 0
SMALL
GASTEIGER

@<TRIPOS>ATOM
      1 O           4.3660    3.2500    0.0000 O.3     1  UNL1       -0.3912
      2 O           3.5000   -3.2500    0.0000 O.3     1  UNL1       -0.3848
      3 C           5.2320    0.7500    0.0000 C.3     1  UNL1       -0.0199
      4 C           5.2320    1.7500    0.0000 C.3     1  UNL1       -0.0036
      5 C           6.1260    2.2847    0.0000 C.3     1  UNL1       -0.0292
      6 C           4.3660    0.2500    0.0000 C.3     1  UNL1       -0.0142
      7 C           6.1260    0.2153    0.0000 C.3     1  UNL1       -0.0467
      8 C           4.3660    2.2500    0.0000 C.3     1  UNL1        0.0627
      9 C           7.0321    1.7708    0.0000 C.3     1  UNL1       -0.0475
     10 C           7.0321    0.7292    0.0000 C.3     1  UNL1       -0.0520
     11 C           3.5000    1.7500    0.0000 C.3     1  UNL1       -0.0053
     12 C           5.2320   -0.2500    0.0000 C.3     1  UNL1       -0.0587
     13 C           3.5000    0.7500    0.0000 C.2     1  UNL1       -0.0706
     14 C           4.3660   -0.7500    0.0000 C.3     1  UNL1       -0.0431
     15 C           6.6160    3.1564    0.0000 C.3     1  UNL1       -0.0595
     16 C           5.6160    3.1448    0.0000 C.3     1  UNL1       -0.0595
     17 C           3.5000   -1.2500    0.0000 C.3     1  UNL1       -0.0201
     18 C           2.6340    0.2500    0.0000 C.2     1  UNL1       -0.0991
     19 C           3.5000   -2.2500    0.0000 C.3     1  UNL1        0.0811
     20 C           4.5000   -2.2500    0.0000 C.3     1  UNL1       -0.0325
     21 C           2.5000   -2.2500    0.0000 C.2     1  UNL1       -0.0602
     22 C           2.0000   -3.1160    0.0000 C.2     1  UNL1       -0.1000
     23 H           5.7714    1.4442    0.0000 H       1  UNL1        0.0336
     24 H           3.8291   -0.0600    0.0000 H       1  UNL1        0.0351
     25 H           5.7214   -0.2544    0.0000 H       1  UNL1        0.0271
     26 H           6.5196   -0.2637    0.0000 H       1  UNL1        0.0271
     27 H           4.9030    2.5600    0.0000 H       1  UNL1        0.0599
     28 H           7.6429    1.6647    0.0000 H       1  UNL1        0.0271
     29 H           7.2411    2.3545    0.0000 H       1  UNL1        0.0271
     30 H           7.2411    0.1455    0.0000 H       1  UNL1        0.0266
     31 H           7.6429    0.8353    0.0000 H       1  UNL1        0.0266
     32 H           3.2880    2.3326    0.0000 H       1  UNL1        0.0335
     33 H           2.8894    1.6423    0.0000 H       1  UNL1        0.0335
     34 H           4.6120   -0.2500    0.0000 H       1  UNL1        0.0235
     35 H           5.2320   -0.8700    0.0000 H       1  UNL1        0.0235
     36 H           5.8520   -0.2500    0.0000 H       1  UNL1        0.0235
     37 H           4.5781   -1.3326    0.0000 H       1  UNL1        0.0272
     38 H           4.9766   -0.6423    0.0000 H       1  UNL1        0.0272
     39 H           7.1564    2.8526    0.0000 H       1  UNL1        0.0235
     40 H           6.9197    3.6969    0.0000 H       1  UNL1        0.0235
     41 H           6.0755    3.4602    0.0000 H       1  UNL1        0.0235
     42 H           6.1493    3.4610    0.0000 H       1  UNL1        0.0235
     43 H           5.2998    3.6782    0.0000 H       1  UNL1        0.0235
     44 H           5.0827    2.8287    0.0000 H       1  UNL1        0.0235
     45 H           3.2880   -0.6674    0.0000 H       1  UNL1        0.0296
     46 H           2.8894   -1.3577    0.0000 H       1  UNL1        0.0296
     47 H           3.8291    3.5600    0.0000 H       1  UNL1        0.2098
     48 H           2.0970    0.5600    0.0000 H       1  UNL1        0.0535
     49 H           2.6340   -0.3700    0.0000 H       1  UNL1        0.0535
     50 H           4.5000   -2.8700    0.0000 H       1  UNL1        0.0260
     51 H           5.1200   -2.2500    0.0000 H       1  UNL1        0.0260
     52 H           4.5000   -1.6300    0.0000 H       1  UNL1        0.0260
     53 H           2.1900   -1.7131    0.0000 H       1  UNL1        0.0594
     54 H           2.9631   -3.5600    0.0000 H       1  UNL1        0.2106
     55 H           1.3800   -3.1160    0.0000 H       1  UNL1        0.0533
     56 H           2.3100   -3.6530    0.0000 H       1  UNL1        0.0533
@<TRIPOS>BOND
     1     8     1    1
     2     1    47    1
     3    19     2    1
     4     2    54    1
     5     3     4    1
     6     3     6    1
     7     3     7    1
     8     3    12    1
     9     4     5    1
    10     4     8    1
    11     4    23    1
    12     5     9    1
    13     5    15    1
    14     5    16    1
    15     6    13    1
    16     6    14    1
    17     6    24    1
    18     7    10    1
    19     7    25    1
    20     7    26    1
    21     8    11    1
    22     8    27    1
    23     9    10    1
    24     9    28    1
    25     9    29    1
    26    10    30    1
    27    10    31    1
    28    11    13    1
    29    11    32    1
    30    11    33    1
    31    12    34    1
    32    12    35    1
    33    12    36    1
    34    13    18    2
    35    14    17    1
    36    14    37    1
    37    14    38    1
    38    15    39    1
    39    15    40    1
    40    15    41    1
    41    16    42    1
    42    16    43    1
    43    16    44    1
    44    17    19    1
    45    17    45    1
    46    17    46    1
    47    18    48    1
    48    18    49    1
    49    19    20    1
    50    19    21    1
    51    20    50    1
    52    20    51    1
    53    20    52    1
    54    21    22    2
    55    21    53    1
    56    22    55    1
    57    22    56    1
