@<TRIPOS>MOLECULE
IMPHY005866
 30 30 0 0 0
SMALL
GASTEIGER

@<TRIPOS>ATOM
      1 O           2.8660   -3.3450    0.0000 O.3     1  UNL1       -0.5068
      2 C           3.7320    2.1550    0.0000 C.3     1  UNL1        0.0012
      3 C           4.7320    2.1550    0.0000 C.3     1  UNL1       -0.0529
      4 C           2.7320    2.1550    0.0000 C.3     1  UNL1       -0.0529
      5 C           3.7320    1.1550    0.0000 C.2     1  UNL1       -0.0741
      6 C           3.7320    3.1550    0.0000 C.2     1  UNL1       -0.0817
      7 C           2.8660    0.6550    0.0000 C.2     1  UNL1       -0.0577
      8 C           2.8660   -0.3450    0.0000 C.ar    1  UNL1       -0.0251
      9 C           2.0000   -0.8450    0.0000 C.ar    1  UNL1       -0.0512
     10 C           3.7320   -0.8450    0.0000 C.ar    1  UNL1       -0.0512
     11 C           4.5981    3.6550    0.0000 C.2     1  UNL1       -0.1018
     12 C           2.0000   -1.8450    0.0000 C.ar    1  UNL1       -0.0196
     13 C           3.7320   -1.8450    0.0000 C.ar    1  UNL1       -0.0196
     14 C           2.8660   -2.3450    0.0000 C.ar    1  UNL1        0.1169
     15 H           4.7320    1.5350    0.0000 H       1  UNL1        0.0241
     16 H           5.3520    2.1550    0.0000 H       1  UNL1        0.0241
     17 H           2.7320    2.7750    0.0000 H       1  UNL1        0.0241
     18 H           2.1120    2.1550    0.0000 H       1  UNL1        0.0241
     19 H           2.7320    1.5350    0.0000 H       1  UNL1        0.0241
     20 H           4.7320    2.7750    0.0000 H       1  UNL1        0.0241
     21 H           4.2690    0.8450    0.0000 H       1  UNL1        0.0581
     22 H           3.1951    3.4650    0.0000 H       1  UNL1        0.0575
     23 H           2.3291    0.9650    0.0000 H       1  UNL1        0.0621
     24 H           1.4631   -0.5350    0.0000 H       1  UNL1        0.0625
     25 H           4.2690   -0.5350    0.0000 H       1  UNL1        0.0625
     26 H           5.1350    3.3450    0.0000 H       1  UNL1        0.0532
     27 H           4.5981    4.2750    0.0000 H       1  UNL1        0.0532
     28 H           1.4631   -2.1550    0.0000 H       1  UNL1        0.0654
     29 H           4.2690   -2.1550    0.0000 H       1  UNL1        0.0654
     30 H           2.3291   -3.6550    0.0000 H       1  UNL1        0.2921
@<TRIPOS>BOND
     1     1    14    1
     2     1    30    1
     3     2     3    1
     4     2     4    1
     5     2     5    1
     6     2     6    1
     7     3    15    1
     8     3    16    1
     9     3    20    1
    10     4    17    1
    11     4    18    1
    12     4    19    1
    13     5     7    2
    14     5    21    1
    15     6    11    2
    16     6    22    1
    17     7     8    1
    18     7    23    1
    19     8     9   ar
    20     8    10   ar
    21     9    12   ar
    22     9    24    1
    23    10    13   ar
    24    10    25    1
    25    11    26    1
    26    11    27    1
    27    12    14   ar
    28    12    28    1
    29    13    14   ar
    30    13    29    1
