@<TRIPOS>MOLECULE
IMPHY009991
 28 30 0 0 0
SMALL
GASTEIGER

@<TRIPOS>ATOM
      1 O           4.5988   -1.5002    0.0000 O.3     1  UNL1       -0.3617
      2 O           2.0000    0.0002    0.0000 O.3     1  UNL1       -0.3623
      3 C           4.5986   -0.4998    0.0000 C.3     1  UNL1        0.1010
      4 C           3.7326   -0.9998    0.0000 C.3     1  UNL1        0.1173
      5 C           2.8665   -0.4998    0.0000 C.3     1  UNL1        0.1168
      6 C           2.8665    0.5002    0.0000 C.3     1  UNL1        0.0960
      7 C           4.5986    0.5002    0.0000 C.3     1  UNL1       -0.0183
      8 C           3.7326    1.0002    0.0000 C.3     1  UNL1       -0.0188
      9 C           5.4646    0.0002    0.0000 C.3     1  UNL1       -0.0150
     10 C           2.8665    1.5002    0.0000 C.3     1  UNL1       -0.0333
     11 C           6.3306   -0.4998    0.0000 C.3     1  UNL1       -0.0600
     12 C           5.4646    1.0002    0.0000 C.3     1  UNL1       -0.0600
     13 H           3.3075   -1.7358    0.0000 H       1  UNL1        0.0652
     14 H           2.4416   -1.2360    0.0000 H       1  UNL1        0.0652
     15 H           5.2092    0.3926    0.0000 H       1  UNL1        0.0295
     16 H           4.8106    1.0828    0.0000 H       1  UNL1        0.0295
     17 H           4.1311    1.4752    0.0000 H       1  UNL1        0.0295
     18 H           3.3340    1.4752    0.0000 H       1  UNL1        0.0295
     19 H           5.4646   -0.6198    0.0000 H       1  UNL1        0.0324
     20 H           3.4865    1.5002    0.0000 H       1  UNL1        0.0258
     21 H           2.8665    2.1202    0.0000 H       1  UNL1        0.0258
     22 H           2.2465    1.5002    0.0000 H       1  UNL1        0.0258
     23 H           6.0206   -1.0367    0.0000 H       1  UNL1        0.0233
     24 H           6.8676   -0.8098    0.0000 H       1  UNL1        0.0233
     25 H           6.6406    0.0372    0.0000 H       1  UNL1        0.0233
     26 H           6.0846    1.0002    0.0000 H       1  UNL1        0.0233
     27 H           5.4646    1.6202    0.0000 H       1  UNL1        0.0233
     28 H           4.8446    1.0002    0.0000 H       1  UNL1        0.0233
@<TRIPOS>BOND
     1     1     3    1
     2     1     4    1
     3     2     5    1
     4     2     6    1
     5     3     4    1
     6     3     7    1
     7     3     9    1
     8     4     5    1
     9     4    13    1
    10     5     6    1
    11     5    14    1
    12     6     8    1
    13     6    10    1
    14     7     8    1
    15     7    15    1
    16     7    16    1
    17     8    17    1
    18     8    18    1
    19     9    11    1
    20     9    12    1
    21     9    19    1
    22    10    20    1
    23    10    21    1
    24    10    22    1
    25    11    23    1
    26    11    24    1
    27    11    25    1
    28    12    26    1
    29    12    27    1
    30    12    28    1
