@<TRIPOS>MOLECULE
IMPHY013013
 40 41 0 0 0
SMALL
GASTEIGER

@<TRIPOS>ATOM
      1 O           6.0010   -0.5950    0.0000 O.3     1  UNL1       -0.4939
      2 O           4.2690   -3.5950    0.0000 O.3     1  UNL1       -0.5060
      3 O           2.5369   -0.5950    0.0000 O.3     1  UNL1       -0.5055
      4 O           3.4030    0.9050    0.0000 O.2     1  UNL1       -0.2870
      5 C           5.1350   -2.0950    0.0000 C.ar    1  UNL1        0.0337
      6 C           4.2690   -0.5950    0.0000 C.ar    1  UNL1        0.1052
      7 C           3.4030   -2.0950    0.0000 C.ar    1  UNL1        0.0335
      8 C           5.1350   -1.0950    0.0000 C.ar    1  UNL1        0.1408
      9 C           4.2690   -2.5950    0.0000 C.ar    1  UNL1        0.1296
     10 C           3.4030   -1.0950    0.0000 C.ar    1  UNL1        0.1376
     11 C           6.0010   -2.5950    0.0000 C.3     1  UNL1       -0.0327
     12 C           2.5369   -2.5950    0.0000 C.3     1  UNL1       -0.0327
     13 C           4.2690    0.4050    0.0000 C.2     1  UNL1        0.1931
     14 C           5.1350    0.9050    0.0000 C.2     1  UNL1       -0.0135
     15 C           5.1350    1.9050    0.0000 C.2     1  UNL1       -0.0510
     16 C           6.0010    2.4050    0.0000 C.ar    1  UNL1       -0.0249
     17 C           6.8671   -1.0950    0.0000 C.3     1  UNL1        0.0788
     18 C           6.8671    1.9050    0.0000 C.ar    1  UNL1       -0.0546
     19 C           6.0010    3.4050    0.0000 C.ar    1  UNL1       -0.0546
     20 C           7.7331    2.4050    0.0000 C.ar    1  UNL1       -0.0612
     21 C           6.8671    3.9050    0.0000 C.ar    1  UNL1       -0.0612
     22 C           7.7331    3.4050    0.0000 C.ar    1  UNL1       -0.0617
     23 H           5.6910   -3.1319    0.0000 H       1  UNL1        0.0280
     24 H           6.5380   -2.9050    0.0000 H       1  UNL1        0.0280
     25 H           6.3110   -2.0581    0.0000 H       1  UNL1        0.0280
     26 H           2.2269   -2.0581    0.0000 H       1  UNL1        0.0280
     27 H           2.0000   -2.9050    0.0000 H       1  UNL1        0.0280
     28 H           2.8469   -3.1319    0.0000 H       1  UNL1        0.0280
     29 H           5.6720    0.5950    0.0000 H       1  UNL1        0.0656
     30 H           3.7320   -3.9050    0.0000 H       1  UNL1        0.2922
     31 H           2.0000   -0.9050    0.0000 H       1  UNL1        0.2922
     32 H           4.5981    2.2150    0.0000 H       1  UNL1        0.0625
     33 H           6.5571   -1.6319    0.0000 H       1  UNL1        0.0660
     34 H           7.4040   -1.4050    0.0000 H       1  UNL1        0.0660
     35 H           7.1771   -0.5581    0.0000 H       1  UNL1        0.0660
     36 H           6.8671    1.2850    0.0000 H       1  UNL1        0.0623
     37 H           5.4641    3.7150    0.0000 H       1  UNL1        0.0623
     38 H           8.2700    2.0950    0.0000 H       1  UNL1        0.0618
     39 H           6.8671    4.5250    0.0000 H       1  UNL1        0.0618
     40 H           8.2700    3.7150    0.0000 H       1  UNL1        0.0618
@<TRIPOS>BOND
     1     1     8    1
     2     1    17    1
     3     2     9    1
     4     2    30    1
     5     3    10    1
     6     3    31    1
     7     4    13    2
     8     5     8   ar
     9     5     9   ar
    10     5    11    1
    11     6     8   ar
    12     6    10   ar
    13     6    13    1
    14     7     9   ar
    15     7    10   ar
    16     7    12    1
    17    11    23    1
    18    11    24    1
    19    11    25    1
    20    12    26    1
    21    12    27    1
    22    12    28    1
    23    13    14    1
    24    14    15    2
    25    14    29    1
    26    15    16    1
    27    15    32    1
    28    16    18   ar
    29    16    19   ar
    30    17    33    1
    31    17    34    1
    32    17    35    1
    33    18    20   ar
    34    18    36    1
    35    19    21   ar
    36    19    37    1
    37    20    22   ar
    38    20    38    1
    39    21    22   ar
    40    21    39    1
    41    22    40    1
