@<TRIPOS>MOLECULE
IMPHY009142
 41 43 0 0 0
SMALL
GASTEIGER

@<TRIPOS>ATOM
      1 O           3.7230    0.2688    0.0000 O.3     1  UNL1       -0.4569
      2 O           7.0268   -1.7198    0.0000 O.3     1  UNL1       -0.4571
      3 O           2.0000    0.7010    0.0000 O.2     1  UNL1       -0.2453
      4 O           8.5873   -0.9683    0.0000 O.2     1  UNL1       -0.2511
      5 C           5.4786    0.3426    0.0000 C.3     1  UNL1        0.0276
      6 C           6.3796    0.7765    0.0000 C.3     1  UNL1       -0.0065
      7 C           4.5777    0.7765    0.0000 C.3     1  UNL1        0.1174
      8 C           4.3551    1.7514    0.0000 C.3     1  UNL1        0.0283
      9 C           7.0647    0.0562    0.0000 C.3     1  UNL1       -0.0045
     10 C           5.6146   -0.6422    0.0000 C.2     1  UNL1       -0.0295
     11 C           6.5929   -0.8188    0.0000 C.3     1  UNL1        0.1248
     12 C           6.6021    1.7514    0.0000 C.2     1  UNL1       -0.0727
     13 C           4.9786    2.5332    0.0000 C.3     1  UNL1       -0.0389
     14 C           5.9786    2.5332    0.0000 C.3     1  UNL1       -0.0310
     15 C           3.3648    1.8379    0.0000 C.2     1  UNL1        0.0361
     16 C           2.9749    0.9235    0.0000 C.2     1  UNL1        0.3353
     17 C           4.8930   -1.3345    0.0000 C.2     1  UNL1       -0.0956
     18 C           7.5770    1.9739    0.0000 C.2     1  UNL1       -0.0992
     19 C           2.8504    2.6955    0.0000 C.2     1  UNL1       -0.0883
     20 C           8.0240   -1.7945    0.0000 C.2     1  UNL1        0.3045
     21 C           8.4578   -2.6955    0.0000 C.3     1  UNL1        0.0333
     22 H           4.7916   -0.1579    0.0000 H       1  UNL1        0.0389
     23 H           7.1993    1.0015    0.0000 H       1  UNL1        0.0354
     24 H           4.6147   -0.0727    0.0000 H       1  UNL1        0.0746
     25 H           4.0200    2.5326    0.0000 H       1  UNL1        0.0387
     26 H           7.5765   -0.2938    0.0000 H       1  UNL1        0.0310
     27 H           7.4666    0.5283    0.0000 H       1  UNL1        0.0310
     28 H           7.2127   -0.8330    0.0000 H       1  UNL1        0.0782
     29 H           5.1166    3.1377    0.0000 H       1  UNL1        0.0275
     30 H           4.4200    2.8022    0.0000 H       1  UNL1        0.0275
     31 H           6.5372    2.8022    0.0000 H       1  UNL1        0.0310
     32 H           5.8407    3.1377    0.0000 H       1  UNL1        0.0310
     33 H           4.2976   -1.1616    0.0000 H       1  UNL1        0.0536
     34 H           5.0411   -1.9365    0.0000 H       1  UNL1        0.0536
     35 H           7.9988    1.5194    0.0000 H       1  UNL1        0.0534
     36 H           7.7598    2.5664    0.0000 H       1  UNL1        0.0534
     37 H           3.1514    3.2375    0.0000 H       1  UNL1        0.0540
     38 H           2.2305    2.6851    0.0000 H       1  UNL1        0.0540
     39 H           7.8992   -2.9645    0.0000 H       1  UNL1        0.0342
     40 H           8.7269   -3.2541    0.0000 H       1  UNL1        0.0342
     41 H           9.0165   -2.4265    0.0000 H       1  UNL1        0.0342
@<TRIPOS>BOND
     1     1     7    1
     2     1    16    1
     3    11     2    1
     4     2    20    1
     5     3    16    2
     6     4    20    2
     7     5     6    1
     8     5     7    1
     9     5    10    1
    10     5    22    1
    11     6     9    1
    12     6    12    1
    13     6    23    1
    14     7     8    1
    15     7    24    1
    16     8    13    1
    17     8    15    1
    18     8    25    1
    19     9    11    1
    20     9    26    1
    21     9    27    1
    22    10    11    1
    23    10    17    2
    24    11    28    1
    25    12    14    1
    26    12    18    2
    27    13    14    1
    28    13    29    1
    29    13    30    1
    30    14    31    1
    31    14    32    1
    32    15    16    1
    33    15    19    2
    34    17    33    1
    35    17    34    1
    36    18    35    1
    37    18    36    1
    38    19    37    1
    39    19    38    1
    40    20    21    1
    41    21    39    1
    42    21    40    1
    43    21    41    1
