@<TRIPOS>MOLECULE
IMPHY001912
 46 50 0 0 0
SMALL
GASTEIGER

@<TRIPOS>ATOM
      1 O           5.7516   -2.0115    0.0000 O.3     1  UNL1       -0.3509
      2 O           7.4728   -2.4727    0.0000 O.3     1  UNL1       -0.3667
      3 O          11.2446   -0.5043    0.0000 O.3     1  UNL1       -0.4526
      4 O           3.1961    3.0791    0.0000 O.3     1  UNL1       -0.4526
      5 O          11.2446   -2.1138    0.0000 O.3     1  UNL1       -0.4526
      6 O           2.0000    2.0022    0.0000 O.3     1  UNL1       -0.4526
      7 C           6.8342   -0.8090    0.0000 C.3     1  UNL1        0.0191
      8 C           5.9207   -0.4023    0.0000 C.3     1  UNL1       -0.0058
      9 C           6.7297   -1.8035    0.0000 C.3     1  UNL1        0.1596
     10 C           5.2516   -1.1454    0.0000 C.3     1  UNL1        0.0542
     11 C           7.7003   -0.3090    0.0000 C.3     1  UNL1       -0.0198
     12 C           5.7128    0.5759    0.0000 C.3     1  UNL1       -0.0222
     13 C           8.5663   -0.8090    0.0000 C.ar    1  UNL1       -0.0432
     14 C           4.7617    0.8849    0.0000 C.ar    1  UNL1       -0.0433
     15 C           9.4323   -0.3090    0.0000 C.ar    1  UNL1       -0.0130
     16 C           4.5538    1.8630    0.0000 C.ar    1  UNL1       -0.0130
     17 C           8.5663   -1.8090    0.0000 C.ar    1  UNL1       -0.0549
     18 C           4.0186    0.2157    0.0000 C.ar    1  UNL1       -0.0549
     19 C          10.2983   -0.8090    0.0000 C.ar    1  UNL1        0.1665
     20 C           3.6028    2.1720    0.0000 C.ar    1  UNL1        0.1665
     21 C           9.4323   -2.3090    0.0000 C.ar    1  UNL1       -0.0159
     22 C           3.0675    0.5248    0.0000 C.ar    1  UNL1       -0.0159
     23 C          10.2983   -1.8090    0.0000 C.ar    1  UNL1        0.1662
     24 C           2.8596    1.5029    0.0000 C.ar    1  UNL1        0.1662
     25 C          11.8282   -1.3090    0.0000 C.3     1  UNL1        0.2332
     26 C           2.2075    2.9744    0.0000 C.3     1  UNL1        0.2332
     27 H           7.3542   -1.1467    0.0000 H       1  UNL1        0.0356
     28 H           6.4025   -0.0121    0.0000 H       1  UNL1        0.0330
     29 H           6.5692   -2.4024    0.0000 H       1  UNL1        0.0910
     30 H           4.8367   -0.6847    0.0000 H       1  UNL1        0.0564
     31 H           4.7500   -1.5099    0.0000 H       1  UNL1        0.0564
     32 H           8.0988    0.1659    0.0000 H       1  UNL1        0.0318
     33 H           7.3017    0.1659    0.0000 H       1  UNL1        0.0318
     34 H           6.3324    0.5975    0.0000 H       1  UNL1        0.0317
     35 H           5.7991    1.1898    0.0000 H       1  UNL1        0.0317
     36 H           7.3439   -3.0791    0.0000 H       1  UNL1        0.2125
     37 H           9.4323    0.3110    0.0000 H       1  UNL1        0.0658
     38 H           5.0146    2.2779    0.0000 H       1  UNL1        0.0658
     39 H           8.0294   -2.1190    0.0000 H       1  UNL1        0.0621
     40 H           4.1475   -0.3907    0.0000 H       1  UNL1        0.0621
     41 H           9.4323   -2.9290    0.0000 H       1  UNL1        0.0655
     42 H           2.6068    0.1099    0.0000 H       1  UNL1        0.0655
     43 H          12.2890   -1.7238    0.0000 H       1  UNL1        0.1166
     44 H          12.2890   -0.8943    0.0000 H       1  UNL1        0.1166
     45 H           2.2073    3.5944    0.0000 H       1  UNL1        0.1166
     46 H           1.5909    3.0394    0.0000 H       1  UNL1        0.1166
@<TRIPOS>BOND
     1     1     9    1
     2     1    10    1
     3     9     2    1
     4     2    36    1
     5     3    19    1
     6     3    25    1
     7     4    20    1
     8     4    26    1
     9     5    23    1
    10     5    25    1
    11     6    24    1
    12     6    26    1
    13     7     8    1
    14     7     9    1
    15     7    11    1
    16     7    27    1
    17     8    10    1
    18     8    12    1
    19     8    28    1
    20     9    29    1
    21    10    30    1
    22    10    31    1
    23    11    13    1
    24    11    32    1
    25    11    33    1
    26    12    14    1
    27    12    34    1
    28    12    35    1
    29    13    15   ar
    30    13    17   ar
    31    14    16   ar
    32    14    18   ar
    33    15    19   ar
    34    15    37    1
    35    16    20   ar
    36    16    38    1
    37    17    21   ar
    38    17    39    1
    39    18    22   ar
    40    18    40    1
    41    19    23   ar
    42    20    24   ar
    43    21    23   ar
    44    21    41    1
    45    22    24   ar
    46    22    42    1
    47    25    43    1
    48    25    44    1
    49    26    45    1
    50    26    46    1
