@<TRIPOS>MOLECULE
IMPHY005261
 90 95 0 0 0
SMALL
GASTEIGER

@<TRIPOS>ATOM
      1 O          10.9540   -2.0697    0.0000 O.3     1  UNL1       -0.3753
      2 O          12.3536   -0.5153    0.0000 O.3     1  UNL1       -0.4587
      3 O           9.2094   -2.5737    0.0000 O.3     1  UNL1       -0.4677
      4 O           7.9357   -1.3999    0.0000 O.2     1  UNL1       -0.2504
      5 O          12.7071    1.1803    0.0000 O.2     1  UNL1       -0.2508
      6 O           2.6726    1.9031    0.0000 O.3     1  UNL1       -0.4950
      7 O          17.9554    1.8551    0.0000 O.3     1  UNL1       -0.4913
      8 O          17.2483   -1.5360    0.0000 O.3     1  UNL1       -0.4913
      9 O          18.5808   -0.0446    0.0000 O.3     1  UNL1       -0.4885
     10 N           8.6152    2.1163    0.0000 N.3     1  UNL1       -0.2934
     11 N           6.1621    0.9988    0.0000 N.ar    1  UNL1       -0.3564
     12 C           9.2698    0.1532    0.0000 C.3     1  UNL1       -0.0197
     13 C           9.9668    0.9273    0.0000 C.3     1  UNL1       -0.0211
     14 C           8.2526    0.3776    0.0000 C.3     1  UNL1       -0.0278
     15 C           9.5891   -0.8837    0.0000 C.3     1  UNL1        0.0891
     16 C           7.9460    1.3731    0.0000 C.3     1  UNL1        0.0512
     17 C           9.6372    1.9154    0.0000 C.3     1  UNL1        0.0028
     18 C          11.0314    0.7181    0.0000 C.3     1  UNL1       -0.0089
     19 C          10.6486   -1.1175    0.0000 C.3     1  UNL1        0.1082
     20 C          11.3746   -0.3112    0.0000 C.3     1  UNL1        0.1301
     21 C           6.9679    1.5810    0.0000 C.ar    1  UNL1        0.0376
     22 C           8.3061    3.0673    0.0000 C.3     1  UNL1        0.0036
     23 C           7.3280    3.2752    0.0000 C.3     1  UNL1       -0.0125
     24 C           6.6589    2.5321    0.0000 C.ar    1  UNL1       -0.0164
     25 C           8.9114   -1.6191    0.0000 C.2     1  UNL1        0.3128
     26 C           5.6648    2.5295    0.0000 C.ar    1  UNL1        0.0034
     27 C           5.3584    1.5838    0.0000 C.ar    1  UNL1        0.0505
     28 C          11.9313   -2.2814    0.0000 C.3     1  UNL1        0.0370
     29 C          13.0198    0.2304    0.0000 C.2     1  UNL1        0.3077
     30 C           4.9832    3.3090    0.0000 C.ar    1  UNL1       -0.0489
     31 C           4.3492    1.3521    0.0000 C.ar    1  UNL1        0.0040
     32 C           3.9689    3.1007    0.0000 C.ar    1  UNL1       -0.0193
     33 C          13.9988    0.0263    0.0000 C.3     1  UNL1        0.0489
     34 C           3.6498    2.1156    0.0000 C.ar    1  UNL1        0.1221
     35 C           8.5317   -3.3090    0.0000 C.3     1  UNL1        0.0817
     36 C          14.6650    0.7720    0.0000 C.3     1  UNL1       -0.0174
     37 C          15.6440    0.5678    0.0000 C.ar    1  UNL1       -0.0397
     38 C           2.0000    2.6430    0.0000 C.3     1  UNL1        0.0788
     39 C          15.9566   -0.3820    0.0000 C.ar    1  UNL1       -0.0129
     40 C          16.3102    1.3136    0.0000 C.ar    1  UNL1       -0.0129
     41 C          17.2892    1.1094    0.0000 C.ar    1  UNL1        0.1654
     42 C          16.9356   -0.5862    0.0000 C.ar    1  UNL1        0.1654
     43 C          17.6018    0.1596    0.0000 C.ar    1  UNL1        0.2035
     44 C          17.6427    2.8050    0.0000 C.3     1  UNL1        0.0790
     45 C          16.5820   -2.2817    0.0000 C.3     1  UNL1        0.0790
     46 C          19.2470    0.7011    0.0000 C.3     1  UNL1        0.0791
     47 H           8.6937   -0.4718    0.0000 H       1  UNL1        0.0313
     48 H          10.5282    1.5655    0.0000 H       1  UNL1        0.0317
     49 H           7.6376    0.2992    0.0000 H       1  UNL1        0.0287
     50 H           8.2246   -0.2417    0.0000 H       1  UNL1        0.0287
     51 H           9.7750   -1.4752    0.0000 H       1  UNL1        0.0443
     52 H           7.3724    0.7459    0.0000 H       1  UNL1        0.0527
     53 H          10.2503    2.0080    0.0000 H       1  UNL1        0.0429
     54 H           9.6509    2.5353    0.0000 H       1  UNL1        0.0429
     55 H          11.6444    0.8107    0.0000 H       1  UNL1        0.0305
     56 H          11.0451    1.3380    0.0000 H       1  UNL1        0.0305
     57 H          11.2548   -1.2476    0.0000 H       1  UNL1        0.0641
     58 H          11.5673   -0.9005    0.0000 H       1  UNL1        0.0760
     59 H           8.9201    3.1536    0.0000 H       1  UNL1        0.0430
     60 H           8.3278    3.6869    0.0000 H       1  UNL1        0.0430
     61 H           7.5602    3.8501    0.0000 H       1  UNL1        0.0326
     62 H           6.8022    3.6038    0.0000 H       1  UNL1        0.0326
     63 H           6.1611    0.3788    0.0000 H       1  UNL1        0.1656
     64 H          11.8001   -2.8874    0.0000 H       1  UNL1        0.0524
     65 H          12.5372   -2.4127    0.0000 H       1  UNL1        0.0524
     66 H          12.0625   -1.6755    0.0000 H       1  UNL1        0.0524
     67 H           5.1811    3.8966    0.0000 H       1  UNL1        0.0625
     68 H           4.1650    0.7601    0.0000 H       1  UNL1        0.0675
     69 H           3.5554    3.5626    0.0000 H       1  UNL1        0.0654
     70 H          13.7687   -0.5495    0.0000 H       1  UNL1        0.0381
     71 H          14.5258   -0.3003    0.0000 H       1  UNL1        0.0381
     72 H           8.0758   -2.8888    0.0000 H       1  UNL1        0.0661
     73 H           8.1116   -3.7649    0.0000 H       1  UNL1        0.0661
     74 H           8.9877   -3.7292    0.0000 H       1  UNL1        0.0661
     75 H          14.8951    1.3477    0.0000 H       1  UNL1        0.0318
     76 H          14.1380    1.0985    0.0000 H       1  UNL1        0.0318
     77 H           2.4588    3.0601    0.0000 H       1  UNL1        0.0660
     78 H           1.5830    3.1018    0.0000 H       1  UNL1        0.0660
     79 H           1.5412    2.2260    0.0000 H       1  UNL1        0.0660
     80 H          15.5436   -0.8444    0.0000 H       1  UNL1        0.0658
     81 H          16.1164    1.9025    0.0000 H       1  UNL1        0.0658
     82 H          18.2317    2.9989    0.0000 H       1  UNL1        0.0660
     83 H          17.4489    3.3939    0.0000 H       1  UNL1        0.0660
     84 H          17.0538    2.6111    0.0000 H       1  UNL1        0.0660
     85 H          16.1197   -1.8686    0.0000 H       1  UNL1        0.0660
     86 H          16.1689   -2.7441    0.0000 H       1  UNL1        0.0660
     87 H          17.0443   -2.6948    0.0000 H       1  UNL1        0.0660
     88 H          19.7094    0.2881    0.0000 H       1  UNL1        0.0660
     89 H          19.6601    1.1635    0.0000 H       1  UNL1        0.0660
     90 H          18.7847    1.1142    0.0000 H       1  UNL1        0.0660
@<TRIPOS>BOND
     1    19     1    1
     2     1    28    1
     3    20     2    1
     4     2    29    1
     5     3    25    1
     6     3    35    1
     7     4    25    2
     8     5    29    2
     9     6    34    1
    10     6    38    1
    11     7    41    1
    12     7    44    1
    13     8    42    1
    14     8    45    1
    15     9    43    1
    16     9    46    1
    17    10    16    1
    18    10    17    1
    19    10    22    1
    20    11    21   ar
    21    11    27   ar
    22    11    63    1
    23    12    13    1
    24    12    14    1
    25    12    15    1
    26    12    47    1
    27    13    17    1
    28    13    18    1
    29    13    48    1
    30    14    16    1
    31    14    49    1
    32    14    50    1
    33    15    19    1
    34    15    25    1
    35    15    51    1
    36    16    21    1
    37    16    52    1
    38    17    53    1
    39    17    54    1
    40    18    20    1
    41    18    55    1
    42    18    56    1
    43    19    20    1
    44    19    57    1
    45    20    58    1
    46    21    24   ar
    47    22    23    1
    48    22    59    1
    49    22    60    1
    50    23    24    1
    51    23    61    1
    52    23    62    1
    53    24    26   ar
    54    26    27   ar
    55    26    30   ar
    56    27    31   ar
    57    28    64    1
    58    28    65    1
    59    28    66    1
    60    29    33    1
    61    30    32   ar
    62    30    67    1
    63    31    34   ar
    64    31    68    1
    65    32    34   ar
    66    32    69    1
    67    33    36    1
    68    33    70    1
    69    33    71    1
    70    35    72    1
    71    35    73    1
    72    35    74    1
    73    36    37    1
    74    36    75    1
    75    36    76    1
    76    37    39   ar
    77    37    40   ar
    78    38    77    1
    79    38    78    1
    80    38    79    1
    81    39    42   ar
    82    39    80    1
    83    40    41   ar
    84    40    81    1
    85    41    43   ar
    86    42    43   ar
    87    44    82    1
    88    44    83    1
    89    44    84    1
    90    45    85    1
    91    45    86    1
    92    45    87    1
    93    46    88    1
    94    46    89    1
    95    46    90    1
