@<TRIPOS>MOLECULE
IMPHY003778
 50 51 0 0 0
SMALL
GASTEIGER

@<TRIPOS>ATOM
      1 O           9.5453   -1.7447    0.0000 O.3     1  UNL1       -0.4533
      2 O          11.1289   -0.9400    0.0000 O.2     1  UNL1       -0.2453
      3 O           2.5369    0.0600    0.0000 O.3     1  UNL1       -0.4773
      4 O           3.4030   -1.4400    0.0000 O.2     1  UNL1       -0.2455
      5 C           8.5991   -0.4400    0.0000 C.3     1  UNL1        0.0314
      6 C           8.5991   -1.4400    0.0000 C.3     1  UNL1        0.1288
      7 C           7.7331    0.0600    0.0000 C.3     1  UNL1       -0.0386
      8 C           9.5453   -0.1353    0.0000 C.2     1  UNL1        0.0364
      9 C           7.7331    1.0600    0.0000 C.3     1  UNL1       -0.0313
     10 C           7.7331   -1.9400    0.0000 C.2     1  UNL1       -0.0444
     11 C          10.1289   -0.9400    0.0000 C.2     1  UNL1        0.3356
     12 C           6.8671    1.5600    0.0000 C.2     1  UNL1       -0.0765
     13 C           6.8671   -1.4400    0.0000 C.2     1  UNL1       -0.0728
     14 C           6.0010   -1.9400    0.0000 C.3     1  UNL1       -0.0284
     15 C           9.8560    0.8153    0.0000 C.2     1  UNL1       -0.0883
     16 C           6.0010    1.0600    0.0000 C.2     1  UNL1       -0.0847
     17 C           5.1350   -1.4400    0.0000 C.3     1  UNL1       -0.0303
     18 C           5.1350    1.5600    0.0000 C.3     1  UNL1       -0.0303
     19 C           6.8671    2.5600    0.0000 C.3     1  UNL1       -0.0438
     20 C           6.8671   -0.4400    0.0000 C.3     1  UNL1       -0.0437
     21 C           4.2690    1.0600    0.0000 C.3     1  UNL1       -0.0178
     22 C           5.1350   -0.4400    0.0000 C.2     1  UNL1       -0.0738
     23 C           4.2690    0.0600    0.0000 C.2     1  UNL1        0.0328
     24 C           3.4030   -0.4400    0.0000 C.2     1  UNL1        0.3325
     25 H           8.6891    0.4052    0.0000 H       1  UNL1        0.0390
     26 H           8.6891   -2.2852    0.0000 H       1  UNL1        0.0785
     27 H           7.1225    0.1677    0.0000 H       1  UNL1        0.0275
     28 H           7.5210   -0.5226    0.0000 H       1  UNL1        0.0275
     29 H           8.3437    0.9523    0.0000 H       1  UNL1        0.0310
     30 H           7.9451    1.6426    0.0000 H       1  UNL1        0.0310
     31 H           7.7331   -2.5600    0.0000 H       1  UNL1        0.0608
     32 H           5.6025   -2.4150    0.0000 H       1  UNL1        0.0313
     33 H           6.3996   -2.4150    0.0000 H       1  UNL1        0.0313
     34 H          10.4627    0.9431    0.0000 H       1  UNL1        0.0540
     35 H           9.4419    1.2767    0.0000 H       1  UNL1        0.0540
     36 H           6.0010    0.4400    0.0000 H       1  UNL1        0.0572
     37 H           4.5244   -1.3323    0.0000 H       1  UNL1        0.0311
     38 H           4.9230   -2.0226    0.0000 H       1  UNL1        0.0311
     39 H           5.5335    2.0349    0.0000 H       1  UNL1        0.0311
     40 H           4.7365    2.0349    0.0000 H       1  UNL1        0.0311
     41 H           7.4871    2.5600    0.0000 H       1  UNL1        0.0274
     42 H           6.8671    3.1800    0.0000 H       1  UNL1        0.0274
     43 H           6.2471    2.5600    0.0000 H       1  UNL1        0.0274
     44 H           4.0569    1.6426    0.0000 H       1  UNL1        0.0318
     45 H           3.6584    0.9523    0.0000 H       1  UNL1        0.0318
     46 H           7.4871   -0.4400    0.0000 H       1  UNL1        0.0274
     47 H           6.8671    0.1800    0.0000 H       1  UNL1        0.0274
     48 H           6.2471   -0.4400    0.0000 H       1  UNL1        0.0274
     49 H           5.6720   -0.1300    0.0000 H       1  UNL1        0.0577
     50 H           2.0000   -0.2500    0.0000 H       1  UNL1        0.2954
@<TRIPOS>BOND
     1     1     6    1
     2     1    11    1
     3     2    11    2
     4     3    24    1
     5     3    50    1
     6     4    24    2
     7     5     6    1
     8     5     7    1
     9     5     8    1
    10     5    25    1
    11     6    10    1
    12     6    26    1
    13     7     9    1
    14     7    27    1
    15     7    28    1
    16     8    11    1
    17     8    15    2
    18     9    12    1
    19     9    29    1
    20     9    30    1
    21    10    13    2
    22    10    31    1
    23    12    16    2
    24    12    19    1
    25    13    14    1
    26    13    20    1
    27    14    17    1
    28    14    32    1
    29    14    33    1
    30    15    34    1
    31    15    35    1
    32    16    18    1
    33    16    36    1
    34    17    22    1
    35    17    37    1
    36    17    38    1
    37    18    21    1
    38    18    39    1
    39    18    40    1
    40    19    41    1
    41    19    42    1
    42    19    43    1
    43    20    46    1
    44    20    47    1
    45    20    48    1
    46    21    23    1
    47    21    44    1
    48    21    45    1
    49    22    23    2
    50    22    49    1
    51    23    24    1
