@<TRIPOS>MOLECULE
IMPHY017060
 50 52 0 0 0
SMALL
GASTEIGER

@<TRIPOS>ATOM
      1 O           4.6497   -0.2419    0.0000 O.3     1  UNL1       -0.4910
      2 O           2.8680    0.7685    0.0000 O.3     1  UNL1       -0.4914
      3 O           9.8622   -2.2073    0.0000 O.3     1  UNL1       -0.5068
      4 N           7.2641    1.2927    0.0000 N.4     1  UNL1        0.2450
      5 C           6.3981    0.7927    0.0000 C.3     1  UNL1        0.0142
      6 C           7.2641    2.2927    0.0000 C.3     1  UNL1       -0.0259
      7 C           5.5320    1.2927    0.0000 C.ar    1  UNL1        0.0490
      8 C           6.3981    2.7927    0.0000 C.3     1  UNL1        0.0133
      9 C           6.3981   -0.2073    0.0000 C.3     1  UNL1        0.0201
     10 C           5.5320    2.2927    0.0000 C.ar    1  UNL1       -0.0301
     11 C           8.2641    1.2927    0.0000 C.3     1  UNL1       -0.0409
     12 C           7.7641    0.4266    0.0000 C.3     1  UNL1       -0.0409
     13 C           4.6381    0.7580    0.0000 C.ar    1  UNL1        0.1702
     14 C           7.2641   -0.7073    0.0000 C.ar    1  UNL1       -0.0415
     15 C           4.6381    2.8273    0.0000 C.ar    1  UNL1       -0.0542
     16 C           3.7320    1.2718    0.0000 C.ar    1  UNL1        0.1620
     17 C           3.7320    2.3135    0.0000 C.ar    1  UNL1       -0.0160
     18 C           8.1301   -0.2073    0.0000 C.ar    1  UNL1       -0.0549
     19 C           7.2641   -1.7073    0.0000 C.ar    1  UNL1       -0.0549
     20 C           8.9962   -0.7073    0.0000 C.ar    1  UNL1       -0.0199
     21 C           8.1301   -2.2073    0.0000 C.ar    1  UNL1       -0.0199
     22 C           3.7895   -0.7519    0.0000 C.3     1  UNL1        0.0790
     23 C           8.9962   -1.7073    0.0000 C.ar    1  UNL1        0.1169
     24 C           2.0000    1.2652    0.0000 C.3     1  UNL1        0.0790
     25 H           6.9350    0.4827    0.0000 H       1  UNL1        0.0909
     26 H           7.8747    2.1850    0.0000 H       1  UNL1        0.0818
     27 H           7.4762    2.8753    0.0000 H       1  UNL1        0.0818
     28 H           6.7966    3.2676    0.0000 H       1  UNL1        0.0365
     29 H           5.9995    3.2676    0.0000 H       1  UNL1        0.0365
     30 H           5.7875   -0.0997    0.0000 H       1  UNL1        0.0372
     31 H           6.1860   -0.7899    0.0000 H       1  UNL1        0.0372
     32 H           8.2641    0.6727    0.0000 H       1  UNL1        0.0778
     33 H           8.8841    1.2927    0.0000 H       1  UNL1        0.0778
     34 H           8.2641    1.9127    0.0000 H       1  UNL1        0.0778
     35 H           7.2272    0.1166    0.0000 H       1  UNL1        0.0778
     36 H           8.0741   -0.1103    0.0000 H       1  UNL1        0.0778
     37 H           8.3010    0.7366    0.0000 H       1  UNL1        0.0778
     38 H           4.6453    3.4473    0.0000 H       1  UNL1        0.0622
     39 H           3.1963    2.6256    0.0000 H       1  UNL1        0.0655
     40 H           8.1301    0.4127    0.0000 H       1  UNL1        0.0621
     41 H           6.7272   -2.0173    0.0000 H       1  UNL1        0.0621
     42 H           9.5331   -0.3973    0.0000 H       1  UNL1        0.0654
     43 H           8.1301   -2.8273    0.0000 H       1  UNL1        0.0654
     44 H           3.4733   -0.2186    0.0000 H       1  UNL1        0.0660
     45 H           3.2562   -1.0681    0.0000 H       1  UNL1        0.0660
     46 H           4.1057   -1.2852    0.0000 H       1  UNL1        0.0660
     47 H           2.3079    1.8033    0.0000 H       1  UNL1        0.0660
     48 H           1.4619    1.5731    0.0000 H       1  UNL1        0.0660
     49 H           1.6921    0.7271    0.0000 H       1  UNL1        0.0660
     50 H           9.8622   -2.8273    0.0000 H       1  UNL1        0.2921
@<TRIPOS>UNITY_ATOM_ATTR
4 1
charge 1
@<TRIPOS>BOND
     1     1    13    1
     2     1    22    1
     3     2    16    1
     4     2    24    1
     5     3    23    1
     6     3    50    1
     7     4     5    1
     8     4     6    1
     9     4    11    1
    10     4    12    1
    11     5     7    1
    12     5     9    1
    13     5    25    1
    14     6     8    1
    15     6    26    1
    16     6    27    1
    17     7    10   ar
    18     7    13   ar
    19     8    10    1
    20     8    28    1
    21     8    29    1
    22     9    14    1
    23     9    30    1
    24     9    31    1
    25    10    15   ar
    26    11    32    1
    27    11    33    1
    28    11    34    1
    29    12    35    1
    30    12    36    1
    31    12    37    1
    32    13    16   ar
    33    14    18   ar
    34    14    19   ar
    35    15    17   ar
    36    15    38    1
    37    16    17   ar
    38    17    39    1
    39    18    20   ar
    40    18    40    1
    41    19    21   ar
    42    19    41    1
    43    20    23   ar
    44    20    42    1
    45    21    23   ar
    46    21    43    1
    47    22    44    1
    48    22    45    1
    49    22    46    1
    50    24    47    1
    51    24    48    1
    52    24    49    1
