@<TRIPOS>MOLECULE
IMPHY005368
 54 56 0 0 0
SMALL
GASTEIGER

@<TRIPOS>ATOM
      1 O           8.8034    1.7008    0.0000 O.3     1  UNL1       -0.4849
      2 O          11.3631    2.0230    0.0000 O.3     1  UNL1       -0.3852
      3 O           7.9384   -1.5702    0.0000 O.3     1  UNL1       -0.5064
      4 C           9.3034    0.1620    0.0000 C.3     1  UNL1        0.0373
      5 C           9.6124    1.1131    0.0000 C.3     1  UNL1        0.1359
      6 C          10.6278    1.3453    0.0000 C.3     1  UNL1        0.1005
      7 C           9.9883   -0.6227    0.0000 C.3     1  UNL1       -0.0098
      8 C          11.3307    0.5766    0.0000 C.3     1  UNL1       -0.0202
      9 C          11.0088   -0.4140    0.0000 C.3     1  UNL1       -0.0431
     10 C           8.3034    0.1620    0.0000 C.ar    1  UNL1        0.0429
     11 C           7.9943    1.1131    0.0000 C.ar    1  UNL1        0.1284
     12 C          10.4086    2.3210    0.0000 C.3     1  UNL1       -0.0326
     13 C           9.6683   -1.5702    0.0000 C.2     1  UNL1       -0.0759
     14 C           7.6184   -0.6227    0.0000 C.ar    1  UNL1        0.1242
     15 C           6.9789    1.3453    0.0000 C.ar    1  UNL1       -0.0162
     16 C          10.3288   -2.3210    0.0000 C.3     1  UNL1       -0.0438
     17 C           6.2760    0.5766    0.0000 C.ar    1  UNL1       -0.0404
     18 C           6.5979   -0.4140    0.0000 C.ar    1  UNL1       -0.0165
     19 C           8.6878   -1.7667    0.0000 C.2     1  UNL1       -0.0994
     20 C           5.2987    0.7883    0.0000 C.3     1  UNL1       -0.0275
     21 C           4.6267    0.0477    0.0000 C.3     1  UNL1       -0.0491
     22 C           3.6493    0.2594    0.0000 C.3     1  UNL1       -0.0530
     23 C           2.9773   -0.4811    0.0000 C.3     1  UNL1       -0.0559
     24 C           2.0000   -0.2695    0.0000 C.3     1  UNL1       -0.0653
     25 H           8.9517   -0.6118    0.0000 H       1  UNL1        0.0394
     26 H           9.7827    1.9458    0.0000 H       1  UNL1        0.0768
     27 H           9.3802   -0.7434    0.0000 H       1  UNL1        0.0352
     28 H          11.8789    0.2870    0.0000 H       1  UNL1        0.0294
     29 H          11.7099    1.0671    0.0000 H       1  UNL1        0.0294
     30 H          11.0273   -1.0338    0.0000 H       1  UNL1        0.0272
     31 H          11.6226   -0.5019    0.0000 H       1  UNL1        0.0272
     32 H          11.0135    2.4569    0.0000 H       1  UNL1        0.0258
     33 H          10.2727    2.9259    0.0000 H       1  UNL1        0.0258
     34 H           9.8036    2.1851    0.0000 H       1  UNL1        0.0258
     35 H          11.9550    1.8382    0.0000 H       1  UNL1        0.2103
     36 H           6.7942    1.9371    0.0000 H       1  UNL1        0.0657
     37 H           9.8633   -2.7305    0.0000 H       1  UNL1        0.0274
     38 H          10.7383   -2.7865    0.0000 H       1  UNL1        0.0274
     39 H          10.7943   -1.9115    0.0000 H       1  UNL1        0.0274
     40 H           6.1848   -0.8764    0.0000 H       1  UNL1        0.0657
     41 H           8.2783   -1.3012    0.0000 H       1  UNL1        0.0534
     42 H           8.4894   -2.3541    0.0000 H       1  UNL1        0.0534
     43 H           5.5331    1.3623    0.0000 H       1  UNL1        0.0313
     44 H           4.7741    1.1189    0.0000 H       1  UNL1        0.0313
     45 H           7.5289   -2.0357    0.0000 H       1  UNL1        0.2921
     46 H           4.3922   -0.5262    0.0000 H       1  UNL1        0.0268
     47 H           5.1512   -0.2828    0.0000 H       1  UNL1        0.0268
     48 H           3.8838    0.8334    0.0000 H       1  UNL1        0.0265
     49 H           3.1248    0.5900    0.0000 H       1  UNL1        0.0265
     50 H           2.7429   -1.0551    0.0000 H       1  UNL1        0.0263
     51 H           3.5019   -0.8117    0.0000 H       1  UNL1        0.0263
     52 H           2.1312    0.3365    0.0000 H       1  UNL1        0.0230
     53 H           1.3940   -0.1382    0.0000 H       1  UNL1        0.0230
     54 H           1.8688   -0.8754    0.0000 H       1  UNL1        0.0230
@<TRIPOS>BOND
     1     1     5    1
     2     1    11    1
     3     6     2    1
     4     2    35    1
     5     3    14    1
     6     3    45    1
     7     4     5    1
     8     4     7    1
     9     4    10    1
    10     4    25    1
    11     5     6    1
    12     5    26    1
    13     6     8    1
    14     6    12    1
    15     7     9    1
    16     7    13    1
    17     7    27    1
    18     8     9    1
    19     8    28    1
    20     8    29    1
    21     9    30    1
    22     9    31    1
    23    10    11   ar
    24    10    14   ar
    25    11    15   ar
    26    12    32    1
    27    12    33    1
    28    12    34    1
    29    13    16    1
    30    13    19    2
    31    14    18   ar
    32    15    17   ar
    33    15    36    1
    34    16    37    1
    35    16    38    1
    36    16    39    1
    37    17    18   ar
    38    17    20    1
    39    18    40    1
    40    19    41    1
    41    19    42    1
    42    20    21    1
    43    20    43    1
    44    20    44    1
    45    21    22    1
    46    21    46    1
    47    21    47    1
    48    22    23    1
    49    22    48    1
    50    22    49    1
    51    23    24    1
    52    23    50    1
    53    23    51    1
    54    24    52    1
    55    24    53    1
    56    24    54    1
