@<TRIPOS>MOLECULE
IMPHY001354
 65 69 0 0 0
SMALL
GASTEIGER

@<TRIPOS>ATOM
      1 O           5.1350    0.9050    0.0000 O.3     1  UNL1       -0.3609
      2 O           6.8671    2.9050    0.0000 O.3     1  UNL1       -0.3862
      3 O           5.1350    3.9050    0.0000 O.3     1  UNL1       -0.3865
      4 O           3.4030    2.9050    0.0000 O.3     1  UNL1       -0.3865
      5 O           2.5369    1.4050    0.0000 O.3     1  UNL1       -0.3924
      6 O           6.0010   -0.5950    0.0000 O.3     1  UNL1       -0.5059
      7 O           9.4931   -0.6297    0.0000 O.2     1  UNL1       -0.4541
      8 O           7.7331    2.4050    0.0000 O.3     1  UNL1       -0.5054
      9 O           9.4815    2.4396    0.0000 O.2     1  UNL1       -0.2869
     10 O           4.2690   -3.5950    0.0000 O.3     1  UNL1       -0.5068
     11 O          13.8555   -2.1292    0.0000 O.3     1  UNL1       -0.5068
     12 C           6.0010    2.4050    0.0000 C.3     1  UNL1        0.1139
     13 C           6.0010    1.4050    0.0000 C.3     1  UNL1        0.1193
     14 C           5.1350    2.9050    0.0000 C.3     1  UNL1        0.1121
     15 C           4.2690    2.4050    0.0000 C.3     1  UNL1        0.1117
     16 C           4.2690    1.4050    0.0000 C.3     1  UNL1        0.1108
     17 C           6.8671    0.9050    0.0000 C.ar    1  UNL1        0.0676
     18 C           3.4030    0.9050    0.0000 C.3     1  UNL1        0.0729
     19 C           6.8671   -0.0950    0.0000 C.ar    1  UNL1        0.1331
     20 C           7.7331    1.4050    0.0000 C.ar    1  UNL1        0.1404
     21 C           7.7331   -0.5950    0.0000 C.ar    1  UNL1        0.0418
     22 C           8.5991    0.9050    0.0000 C.ar    1  UNL1        0.1061
     23 C           8.5991   -0.0950    0.0000 C.ar    1  UNL1        0.1497
     24 C           7.7331   -1.5950    0.0000 C.3     1  UNL1        0.0046
     25 C           9.4931    1.4397    0.0000 C.ar    1  UNL1        0.1966
     26 C           6.8671   -2.0950    0.0000 C.ar    1  UNL1       -0.0426
     27 C          10.3991   -0.1158    0.0000 C.ar    1  UNL1        0.1392
     28 C          10.3991    0.9258    0.0000 C.ar    1  UNL1        0.0288
     29 C          11.2632   -0.6192    0.0000 C.ar    1  UNL1        0.0176
     30 C           6.0010   -1.5950    0.0000 C.ar    1  UNL1       -0.0548
     31 C           6.8671   -3.0950    0.0000 C.ar    1  UNL1       -0.0548
     32 C           5.1350   -2.0950    0.0000 C.ar    1  UNL1       -0.0199
     33 C           6.0010   -3.5950    0.0000 C.ar    1  UNL1       -0.0199
     34 C          11.2594   -1.6191    0.0000 C.ar    1  UNL1       -0.0476
     35 C          12.1312   -0.1225    0.0000 C.ar    1  UNL1       -0.0476
     36 C           5.1350   -3.0950    0.0000 C.ar    1  UNL1        0.1169
     37 C          12.1235   -2.1225    0.0000 C.ar    1  UNL1       -0.0195
     38 C          12.9953   -0.6258    0.0000 C.ar    1  UNL1       -0.0195
     39 C          12.9914   -1.6258    0.0000 C.ar    1  UNL1        0.1169
     40 H           6.0010    0.5550    0.0000 H       1  UNL1        0.0676
     41 H           6.5380    2.0950    0.0000 H       1  UNL1        0.0649
     42 H           5.6720    3.2150    0.0000 H       1  UNL1        0.0647
     43 H           4.2690    3.0250    0.0000 H       1  UNL1        0.0647
     44 H           4.2690    0.7850    0.0000 H       1  UNL1        0.0646
     45 H           3.0044    0.4301    0.0000 H       1  UNL1        0.0584
     46 H           3.8015    0.4301    0.0000 H       1  UNL1        0.0584
     47 H           6.8671    3.5250    0.0000 H       1  UNL1        0.2100
     48 H           4.5981    4.2150    0.0000 H       1  UNL1        0.2100
     49 H           3.4030    3.5250    0.0000 H       1  UNL1        0.2100
     50 H           7.9451   -2.1776    0.0000 H       1  UNL1        0.0364
     51 H           8.3437   -1.4873    0.0000 H       1  UNL1        0.0364
     52 H           2.0000    1.0950    0.0000 H       1  UNL1        0.2095
     53 H           5.4641   -0.2850    0.0000 H       1  UNL1        0.2922
     54 H           8.2700    2.7150    0.0000 H       1  UNL1        0.2922
     55 H          10.9349    1.2379    0.0000 H       1  UNL1        0.0693
     56 H           6.0010   -0.9750    0.0000 H       1  UNL1        0.0622
     57 H           7.4040   -3.4050    0.0000 H       1  UNL1        0.0622
     58 H           4.5981   -1.7850    0.0000 H       1  UNL1        0.0654
     59 H           6.0010   -4.2150    0.0000 H       1  UNL1        0.0654
     60 H          10.7212   -1.9271    0.0000 H       1  UNL1        0.0626
     61 H          12.1336    0.4975    0.0000 H       1  UNL1        0.0626
     62 H          12.1211   -2.7425    0.0000 H       1  UNL1        0.0654
     63 H          13.5334   -0.3179    0.0000 H       1  UNL1        0.0654
     64 H           4.2690   -4.2150    0.0000 H       1  UNL1        0.2921
     65 H          14.3936   -1.8212    0.0000 H       1  UNL1        0.2921
@<TRIPOS>BOND
     1     1    13    1
     2     1    16    1
     3    12     2    1
     4     2    47    1
     5    14     3    1
     6     3    48    1
     7    15     4    1
     8     4    49    1
     9     5    18    1
    10     5    52    1
    11     6    19    1
    12     6    53    1
    13     7    23   ar
    14     7    27   ar
    15     8    20    1
    16     8    54    1
    17     9    25    2
    18    10    36    1
    19    10    64    1
    20    11    39    1
    21    11    65    1
    22    12    13    1
    23    12    14    1
    24    12    41    1
    25    13    17    1
    26    13    40    1
    27    14    15    1
    28    14    42    1
    29    15    16    1
    30    15    43    1
    31    16    18    1
    32    16    44    1
    33    17    19   ar
    34    17    20   ar
    35    18    45    1
    36    18    46    1
    37    19    21   ar
    38    20    22   ar
    39    21    23   ar
    40    21    24    1
    41    22    23   ar
    42    22    25   ar
    43    24    26    1
    44    24    50    1
    45    24    51    1
    46    25    28   ar
    47    26    30   ar
    48    26    31   ar
    49    27    28   ar
    50    27    29    1
    51    28    55    1
    52    29    34   ar
    53    29    35   ar
    54    30    32   ar
    55    30    56    1
    56    31    33   ar
    57    31    57    1
    58    32    36   ar
    59    32    58    1
    60    33    36   ar
    61    33    59    1
    62    34    37   ar
    63    34    60    1
    64    35    38   ar
    65    35    61    1
    66    37    39   ar
    67    37    62    1
    68    38    39   ar
    69    38    63    1
