@<TRIPOS>MOLECULE
IMPHY005630
 23 22 0 0 0
SMALL
GASTEIGER

@<TRIPOS>ATOM
      1 S1          3.7320    0.3100    0.0000 S.3     1  <1>        -0.1581
      2 O1          6.3301    1.8100    0.0000 O.3     1  <1>        -0.4795
      3 O2          5.4641    3.3100    0.0000 O.2     1  <1>        -0.2492
      4 O3          2.0000   -2.6900    0.0000 O.3     1  <1>        -0.4806
      5 O4          3.7320   -2.6900    0.0000 O.2     1  <1>        -0.2510
      6 N1          3.7320    2.3100    0.0000 N.3     1  <1>        -0.3178
      7 C1          4.5981    1.8100    0.0000 C.3     1  <1>         0.1123
      8 C2          4.5981    0.8100    0.0000 C.3     1  <1>         0.0193
      9 C3          3.7320   -0.6900    0.0000 C.3     1  <1>         0.0038
     10 C4          2.8660   -1.1900    0.0000 C.3     1  <1>         0.0537
     11 C5          5.4641    2.3100    0.0000 C.2     1  <1>         0.3225
     12 C6          2.8660   -2.1900    0.0000 C.2     1  <1>         0.3055
     13 H1          4.5981    2.4300    0.0000 H       1  <1>         0.0582
     14 H2          4.8101    0.2274    0.0000 H       1  <1>         0.0397
     15 H3          5.2087    0.9177    0.0000 H       1  <1>         0.0397
     16 H4          3.9441   -1.2726    0.0000 H       1  <1>         0.0381
     17 H5          4.3426   -0.5823    0.0000 H       1  <1>         0.0381
     18 H6          2.6540   -0.6074    0.0000 H       1  <1>         0.0385
     19 H7          2.2554   -1.2977    0.0000 H       1  <1>         0.0385
     20 H8          3.1951    2.0000    0.0000 H       1  <1>         0.1190
     21 H9          3.7320    2.9300    0.0000 H       1  <1>         0.1190
     22 H10         6.8671    2.1200    0.0000 H       1  <1>         0.2951
     23 H11         2.0000   -3.3100    0.0000 H       1  <1>         0.2951
@<TRIPOS>BOND
     1     1     8    1
     2     1     9    1
     3     2    11    1
     4     2    22    1
     5     3    11    2
     6     4    12    1
     7     4    23    1
     8     5    12    2
     9     6     7    1
    10     6    20    1
    11     6    21    1
    12     7     8    1
    13     7    11    1
    14     7    13    1
    15     8    14    1
    16     8    15    1
    17     9    10    1
    18     9    16    1
    19     9    17    1
    20    10    12    1
    21    10    18    1
    22    10    19    1
