@<TRIPOS>MOLECULE
IMPHY011251
 38 40 0 0 0
SMALL
GASTEIGER

@<TRIPOS>ATOM
      1 O           4.1393   -2.4730    0.0000 O.3     1  UNL1       -0.3886
      2 O           5.1482    2.5148    0.0000 O.3     1  UNL1       -0.4533
      3 O           6.8881    2.8730    0.0000 O.2     1  UNL1       -0.2453
      4 C           4.0984   -0.5040    0.0000 C.3     1  UNL1       -0.0052
      5 C           3.1974   -0.0701    0.0000 C.3     1  UNL1       -0.0145
      6 C           3.9624   -1.4887    0.0000 C.3     1  UNL1        0.0667
      7 C           4.9994   -0.0701    0.0000 C.3     1  UNL1       -0.0363
      8 C           2.5124   -0.7904    0.0000 C.3     1  UNL1       -0.0436
      9 C           2.9842   -1.6654    0.0000 C.3     1  UNL1       -0.0234
     10 C           5.2219    0.9048    0.0000 C.3     1  UNL1        0.0315
     11 C           2.9749    0.9048    0.0000 C.2     1  UNL1       -0.0696
     12 C           4.5984    1.6866    0.0000 C.3     1  UNL1        0.1288
     13 C           4.9531   -1.6247    0.0000 C.3     1  UNL1       -0.0358
     14 C           3.5984    1.6866    0.0000 C.2     1  UNL1       -0.0441
     15 C           6.1517    1.2565    0.0000 C.2     1  UNL1        0.0364
     16 C           2.0000    1.1273    0.0000 C.3     1  UNL1       -0.0434
     17 C           6.1062    2.2496    0.0000 C.2     1  UNL1        0.3356
     18 C           6.9872    0.7071    0.0000 C.2     1  UNL1       -0.0883
     19 H           4.7854   -1.0045    0.0000 H       1  UNL1        0.0334
     20 H           2.3778    0.1549    0.0000 H       1  UNL1        0.0349
     21 H           5.1374   -0.6746    0.0000 H       1  UNL1        0.0276
     22 H           5.6194   -0.0701    0.0000 H       1  UNL1        0.0276
     23 H           2.1105   -0.3183    0.0000 H       1  UNL1        0.0272
     24 H           2.0006   -1.1404    0.0000 H       1  UNL1        0.0272
     25 H           2.4105   -1.9007    0.0000 H       1  UNL1        0.0293
     26 H           3.1579   -2.2606    0.0000 H       1  UNL1        0.0293
     27 H           5.8627    0.3464    0.0000 H       1  UNL1        0.0390
     28 H           4.1966    2.4357    0.0000 H       1  UNL1        0.0785
     29 H           4.8688   -2.2389    0.0000 H       1  UNL1        0.0257
     30 H           5.5674   -1.7090    0.0000 H       1  UNL1        0.0257
     31 H           5.0374   -1.0104    0.0000 H       1  UNL1        0.0257
     32 H           3.3294    2.2452    0.0000 H       1  UNL1        0.0608
     33 H           3.6656   -2.8730    0.0000 H       1  UNL1        0.2102
     34 H           2.1380    1.7318    0.0000 H       1  UNL1        0.0274
     35 H           1.3955    1.2653    0.0000 H       1  UNL1        0.0274
     36 H           1.8620    0.5229    0.0000 H       1  UNL1        0.0274
     37 H           6.9512    0.0881    0.0000 H       1  UNL1        0.0540
     38 H           7.5412    0.9854    0.0000 H       1  UNL1        0.0540
@<TRIPOS>BOND
     1     6     1    1
     2     1    33    1
     3     2    12    1
     4     2    17    1
     5     3    17    2
     6     4     5    1
     7     4     6    1
     8     4     7    1
     9     4    19    1
    10     5     8    1
    11     5    11    1
    12     5    20    1
    13     6     9    1
    14     6    13    1
    15     7    10    1
    16     7    21    1
    17     7    22    1
    18     8     9    1
    19     8    23    1
    20     8    24    1
    21     9    25    1
    22     9    26    1
    23    10    12    1
    24    10    15    1
    25    10    27    1
    26    11    14    2
    27    11    16    1
    28    12    14    1
    29    12    28    1
    30    13    29    1
    31    13    30    1
    32    13    31    1
    33    14    32    1
    34    15    17    1
    35    15    18    2
    36    16    34    1
    37    16    35    1
    38    16    36    1
    39    18    37    1
    40    18    38    1
