@<TRIPOS>MOLECULE
IMPHY011885
 37 39 0 0 0
SMALL
GASTEIGER

@<TRIPOS>ATOM
      1 O           6.0682   -0.2704    0.0000 O.3     1  UNL1       -0.4809
      2 O           7.8003    1.7296    0.0000 O.3     1  UNL1       -0.3849
      3 O           6.0682    2.7296    0.0000 O.3     1  UNL1       -0.3842
      4 O           4.3198    2.7642    0.0000 O.3     1  UNL1       -0.5062
      5 O           2.5381   -0.2945    0.0000 O.3     1  UNL1       -0.5065
      6 O          10.3984    0.2296    0.0000 O.3     1  UNL1       -0.5032
      7 O           8.6663   -2.7704    0.0000 O.3     1  UNL1       -0.5032
      8 O          10.3984   -1.7704    0.0000 O.3     1  UNL1       -0.5009
      9 C           6.9343    1.2296    0.0000 C.3     1  UNL1        0.1262
     10 C           6.9343    0.2296    0.0000 C.3     1  UNL1        0.1538
     11 C           6.0682    1.7296    0.0000 C.3     1  UNL1        0.1166
     12 C           5.2022    1.2296    0.0000 C.ar    1  UNL1        0.0667
     13 C           5.2022    0.2296    0.0000 C.ar    1  UNL1        0.1342
     14 C           7.8003   -0.2704    0.0000 C.ar    1  UNL1        0.0024
     15 C           4.3083    1.7643    0.0000 C.ar    1  UNL1        0.1295
     16 C           4.3083   -0.3051    0.0000 C.ar    1  UNL1        0.0222
     17 C           7.8003   -1.2704    0.0000 C.ar    1  UNL1       -0.0095
     18 C           8.6663    0.2296    0.0000 C.ar    1  UNL1       -0.0095
     19 C           3.4022    1.2504    0.0000 C.ar    1  UNL1        0.0219
     20 C           3.4022    0.2088    0.0000 C.ar    1  UNL1        0.1238
     21 C           9.5323   -0.2704    0.0000 C.ar    1  UNL1        0.1623
     22 C           8.6663   -1.7704    0.0000 C.ar    1  UNL1        0.1623
     23 C           9.5323   -1.2704    0.0000 C.ar    1  UNL1        0.2006
     24 H           6.9343    1.8496    0.0000 H       1  UNL1        0.0663
     25 H           6.9343   -0.3904    0.0000 H       1  UNL1        0.0812
     26 H           5.5313    2.0396    0.0000 H       1  UNL1        0.0673
     27 H           4.3154   -0.9250    0.0000 H       1  UNL1        0.0691
     28 H           7.8003    2.3496    0.0000 H       1  UNL1        0.2101
     29 H           7.2634   -1.5804    0.0000 H       1  UNL1        0.0659
     30 H           8.6663    0.8496    0.0000 H       1  UNL1        0.0659
     31 H           6.6052    3.0396    0.0000 H       1  UNL1        0.2103
     32 H           2.8665    1.5625    0.0000 H       1  UNL1        0.0691
     33 H           3.7865    3.0804    0.0000 H       1  UNL1        0.2922
     34 H           2.0000    0.0134    0.0000 H       1  UNL1        0.2921
     35 H          10.9353   -0.0804    0.0000 H       1  UNL1        0.2923
     36 H           8.1294   -3.0804    0.0000 H       1  UNL1        0.2923
     37 H          10.3984   -2.3904    0.0000 H       1  UNL1        0.2924
@<TRIPOS>BOND
     1     1    10    1
     2     1    13    1
     3     9     2    1
     4     2    28    1
     5    11     3    1
     6     3    31    1
     7     4    15    1
     8     4    33    1
     9     5    20    1
    10     5    34    1
    11     6    21    1
    12     6    35    1
    13     7    22    1
    14     7    36    1
    15     8    23    1
    16     8    37    1
    17     9    10    1
    18     9    11    1
    19     9    24    1
    20    10    14    1
    21    10    25    1
    22    11    12    1
    23    11    26    1
    24    12    13   ar
    25    12    15   ar
    26    13    16   ar
    27    14    17   ar
    28    14    18   ar
    29    15    19   ar
    30    16    20   ar
    31    16    27    1
    32    17    22   ar
    33    17    29    1
    34    18    21   ar
    35    18    30    1
    36    19    20   ar
    37    19    32    1
    38    21    23   ar
    39    22    23   ar
