@<TRIPOS>MOLECULE
IMPHY002245
 93 98 0 0 0
SMALL
GASTEIGER

@<TRIPOS>ATOM
      1 O           9.9650    0.4481    0.0000 O.3     1  UNL1       -0.3585
      2 O           7.8363    2.4399    0.0000 O.3     1  UNL1       -0.4581
      3 O           9.5407   -1.6471    0.0000 O.3     1  UNL1       -0.3888
      4 O          11.2842   -0.6672    0.0000 O.3     1  UNL1       -0.3858
      5 O          10.5045    2.8500    0.0000 O.3     1  UNL1       -0.4494
      6 O          11.9455    1.6914    0.0000 O.3     1  UNL1       -0.4659
      7 O          11.9255   -0.0406    0.0000 O.2     1  UNL1       -0.2475
      8 O           8.7754    3.9309    0.0000 O.2     1  UNL1       -0.2466
      9 O           6.8671   -3.2925    0.0000 O.2     1  UNL1       -0.4576
     10 O           5.0597   -2.2397    0.0000 O.2     1  UNL1       -0.2885
     11 O           9.6975    4.3826    0.0000 O.2     1  UNL1       -0.2507
     12 O           5.1350   -3.2925    0.0000 O.3     1  UNL1       -0.3313
     13 O           6.8671   -5.2925    0.0000 O.3     1  UNL1       -0.3829
     14 O          11.5062    6.3137    0.0000 O.3     1  UNL1       -0.3886
     15 O           5.1350   -6.2925    0.0000 O.3     1  UNL1       -0.3864
     16 O           3.4030   -5.2925    0.0000 O.3     1  UNL1       -0.3865
     17 O           2.5369   -3.7925    0.0000 O.3     1  UNL1       -0.3924
     18 C           8.7037    0.8628    0.0000 C.3     1  UNL1        0.0471
     19 C           8.6921   -0.1372    0.0000 C.3     1  UNL1        0.0084
     20 C           9.5754    1.3527    0.0000 C.3     1  UNL1        0.0603
     21 C           7.7920   -0.6615    0.0000 C.3     1  UNL1       -0.0007
     22 C           7.8160    1.4077    0.0000 C.3     1  UNL1        0.1120
     23 C          10.4356    0.8427    0.0000 C.3     1  UNL1        0.2007
     24 C           6.8920   -0.1372    0.0000 C.3     1  UNL1       -0.0187
     25 C           9.5523   -0.6472    0.0000 C.3     1  UNL1        0.0886
     26 C           9.1651    0.4574    0.0000 C.3     1  UNL1        0.0591
     27 C          10.4241   -0.1572    0.0000 C.3     1  UNL1        0.1210
     28 C           6.9040    0.9044    0.0000 C.3     1  UNL1       -0.0108
     29 C           9.6196    2.3842    0.0000 C.3     1  UNL1        0.2056
     30 C           5.9421   -0.6615    0.0000 C.3     1  UNL1        0.0261
     31 C           8.4319   -1.4300    0.0000 C.3     1  UNL1       -0.0553
     32 C           7.8046   -1.7464    0.0000 C.2     1  UNL1       -0.0321
     33 C          11.4355    0.8312    0.0000 C.2     1  UNL1        0.3423
     34 C           8.7442    2.9314    0.0000 C.2     1  UNL1        0.3491
     35 C           5.9295   -1.7464    0.0000 C.2     1  UNL1        0.2002
     36 C           6.8671   -2.2925    0.0000 C.2     1  UNL1        0.1631
     37 C           5.0839   -0.1482    0.0000 C.3     1  UNL1       -0.0550
     38 C          10.5434    3.8493    0.0000 C.2     1  UNL1        0.3106
     39 C          12.9455    1.6798    0.0000 C.3     1  UNL1        0.0818
     40 C           6.0010   -3.7925    0.0000 C.3     1  UNL1        0.2309
     41 C          11.4283    4.3152    0.0000 C.3     1  UNL1        0.0732
     42 C           6.0010   -4.7925    0.0000 C.3     1  UNL1        0.1454
     43 C          11.4672    5.3144    0.0000 C.3     1  UNL1        0.0706
     44 C           5.1350   -5.2925    0.0000 C.3     1  UNL1        0.1152
     45 C           4.2690   -3.7925    0.0000 C.3     1  UNL1        0.1140
     46 C           4.2690   -4.7925    0.0000 C.3     1  UNL1        0.1120
     47 C          12.4665    5.2755    0.0000 C.3     1  UNL1       -0.0358
     48 C          10.4680    5.3534    0.0000 C.3     1  UNL1       -0.0358
     49 C           3.4030   -3.2925    0.0000 C.3     1  UNL1        0.0731
     50 H           8.6823   -0.9871    0.0000 H       1  UNL1        0.0342
     51 H           9.1590    2.0937    0.0000 H       1  UNL1        0.0384
     52 H           7.0883    1.8470    0.0000 H       1  UNL1        0.0740
     53 H           6.1625    0.2991    0.0000 H       1  UNL1        0.0317
     54 H          10.0856   -0.9633    0.0000 H       1  UNL1        0.0623
     55 H           8.6407    0.1266    0.0000 H       1  UNL1        0.0567
     56 H           9.3338   -0.1392    0.0000 H       1  UNL1        0.0567
     57 H          10.9645    0.1466    0.0000 H       1  UNL1        0.0654
     58 H           6.7017    1.4904    0.0000 H       1  UNL1        0.0304
     59 H           6.2920    0.8054    0.0000 H       1  UNL1        0.0304
     60 H           9.6426    3.0037    0.0000 H       1  UNL1        0.0857
     61 H           5.4010   -0.9642    0.0000 H       1  UNL1        0.0382
     62 H           7.9554   -1.8267    0.0000 H       1  UNL1        0.0238
     63 H           8.8286   -1.9065    0.0000 H       1  UNL1        0.0238
     64 H           8.9084   -1.0333    0.0000 H       1  UNL1        0.0238
     65 H           8.3439   -2.0522    0.0000 H       1  UNL1        0.0615
     66 H          10.0741   -1.9633    0.0000 H       1  UNL1        0.2099
     67 H          11.2771   -1.2872    0.0000 H       1  UNL1        0.2100
     68 H           5.4021    0.3839    0.0000 H       1  UNL1        0.0237
     69 H           4.5518    0.1701    0.0000 H       1  UNL1        0.0237
     70 H           4.7656   -0.6803    0.0000 H       1  UNL1        0.0237
     71 H          12.9383    1.0598    0.0000 H       1  UNL1        0.0661
     72 H          13.5654    1.6726    0.0000 H       1  UNL1        0.0661
     73 H          12.9526    2.2997    0.0000 H       1  UNL1        0.0661
     74 H           6.0010   -3.1725    0.0000 H       1  UNL1        0.1084
     75 H          11.6175    3.7248    0.0000 H       1  UNL1        0.0406
     76 H          12.0426    4.3990    0.0000 H       1  UNL1        0.0406
     77 H           6.0010   -5.4125    0.0000 H       1  UNL1        0.0683
     78 H           4.5981   -5.6025    0.0000 H       1  UNL1        0.0648
     79 H           4.2690   -3.1725    0.0000 H       1  UNL1        0.0647
     80 H           3.7320   -4.4825    0.0000 H       1  UNL1        0.0647
     81 H          10.4921    5.9729    0.0000 H       1  UNL1        0.0257
     82 H           9.8484    5.3775    0.0000 H       1  UNL1        0.0257
     83 H          10.4438    4.7338    0.0000 H       1  UNL1        0.0257
     84 H          12.4423    4.6559    0.0000 H       1  UNL1        0.0257
     85 H          13.0860    5.2513    0.0000 H       1  UNL1        0.0257
     86 H          12.4906    5.8950    0.0000 H       1  UNL1        0.0257
     87 H           6.8671   -5.9125    0.0000 H       1  UNL1        0.2102
     88 H          12.0548    6.6025    0.0000 H       1  UNL1        0.2102
     89 H           3.8015   -2.8176    0.0000 H       1  UNL1        0.0584
     90 H           3.0044   -2.8176    0.0000 H       1  UNL1        0.0584
     91 H           4.5981   -6.6025    0.0000 H       1  UNL1        0.2100
     92 H           3.4030   -5.9125    0.0000 H       1  UNL1        0.2100
     93 H           2.0000   -3.4825    0.0000 H       1  UNL1        0.2095
@<TRIPOS>BOND
     1     1    23    1
     2     1    26    1
     3     2    22    1
     4     2    34    1
     5    25     3    1
     6     3    66    1
     7    27     4    1
     8     4    67    1
     9    29     5    1
    10     5    38    1
    11     6    33    1
    12     6    39    1
    13     7    33    2
    14     8    34    2
    15     9    36    1
    16    40     9    1
    17    10    35    2
    18    11    38    2
    19    12    40    1
    20    12    45    1
    21    42    13    1
    22    13    87    1
    23    14    43    1
    24    14    88    1
    25    44    15    1
    26    15    91    1
    27    46    16    1
    28    16    92    1
    29    17    49    1
    30    17    93    1
    31    18    19    1
    32    18    20    1
    33    18    22    1
    34    18    26    1
    35    19    21    1
    36    19    25    1
    37    19    50    1
    38    20    23    1
    39    20    29    1
    40    20    51    1
    41    21    24    1
    42    21    31    1
    43    21    32    1
    44    22    28    1
    45    22    52    1
    46    23    27    1
    47    23    33    1
    48    24    28    1
    49    24    30    1
    50    24    53    1
    51    25    27    1
    52    25    54    1
    53    26    55    1
    54    26    56    1
    55    27    57    1
    56    28    58    1
    57    28    59    1
    58    29    34    1
    59    29    60    1
    60    30    35    1
    61    30    37    1
    62    30    61    1
    63    31    62    1
    64    31    63    1
    65    31    64    1
    66    32    36    2
    67    32    65    1
    68    35    36    1
    69    37    68    1
    70    37    69    1
    71    37    70    1
    72    38    41    1
    73    39    71    1
    74    39    72    1
    75    39    73    1
    76    40    42    1
    77    40    74    1
    78    41    43    1
    79    41    75    1
    80    41    76    1
    81    42    44    1
    82    42    77    1
    83    43    47    1
    84    43    48    1
    85    44    46    1
    86    44    78    1
    87    45    46    1
    88    45    49    1
    89    45    79    1
    90    46    80    1
    91    47    84    1
    92    47    85    1
    93    47    86    1
    94    48    81    1
    95    48    82    1
    96    48    83    1
    97    49    89    1
    98    49    90    1
