@<TRIPOS>MOLECULE
IMPHY015530
 72 71 0 0 0
SMALL
GASTEIGER

@<TRIPOS>ATOM
      1 S           6.3301    0.2500    0.0000 S.O     1  UNL1        0.3055
      2 O           7.1962    0.7500    0.0000 O.3     1  UNL1       -0.2679
      3 O           5.4641    0.7500    0.0000 O.3     1  UNL1       -0.2679
      4 O           6.3301   -0.7500    0.0000 O.2     1  UNL1       -0.1962
      5 C          14.9904    0.2500    0.0000 C.3     1  UNL1       -0.0531
      6 C          15.8564    0.7500    0.0000 C.3     1  UNL1       -0.0531
      7 C          14.1244    0.7500    0.0000 C.3     1  UNL1       -0.0531
      8 C          16.7224    0.2500    0.0000 C.3     1  UNL1       -0.0531
      9 C          13.2583    0.2500    0.0000 C.3     1  UNL1       -0.0531
     10 C          17.5885    0.7500    0.0000 C.3     1  UNL1       -0.0531
     11 C          12.3923    0.7500    0.0000 C.3     1  UNL1       -0.0531
     12 C          18.4545    0.2500    0.0000 C.3     1  UNL1       -0.0531
     13 C          11.5263    0.2500    0.0000 C.3     1  UNL1       -0.0531
     14 C          19.3205    0.7500    0.0000 C.3     1  UNL1       -0.0531
     15 C          10.6603    0.7500    0.0000 C.3     1  UNL1       -0.0530
     16 C          20.1865    0.2500    0.0000 C.3     1  UNL1       -0.0531
     17 C           9.7942    0.2500    0.0000 C.3     1  UNL1       -0.0509
     18 C          21.0526    0.7500    0.0000 C.3     1  UNL1       -0.0533
     19 C           8.9282    0.7500    0.0000 C.3     1  UNL1       -0.0281
     20 C          21.9186    0.2500    0.0000 C.3     1  UNL1       -0.0559
     21 C           8.0622    0.2500    0.0000 C.3     1  UNL1        0.0667
     22 C          22.7846    0.7500    0.0000 C.3     1  UNL1       -0.0653
     23 C           3.7320    0.7500    0.0000 C.3     1  UNL1       -0.0284
     24 C           4.5981    0.2500    0.0000 C.3     1  UNL1        0.0667
     25 C           2.8660    0.2500    0.0000 C.3     1  UNL1       -0.0538
     26 C           2.0000    0.7500    0.0000 C.3     1  UNL1       -0.0652
     27 H          14.5919   -0.2249    0.0000 H       1  UNL1        0.0265
     28 H          15.3889   -0.2249    0.0000 H       1  UNL1        0.0265
     29 H          16.2549    1.2250    0.0000 H       1  UNL1        0.0265
     30 H          15.4579    1.2250    0.0000 H       1  UNL1        0.0265
     31 H          14.5229    1.2250    0.0000 H       1  UNL1        0.0265
     32 H          13.7258    1.2250    0.0000 H       1  UNL1        0.0265
     33 H          16.3239   -0.2249    0.0000 H       1  UNL1        0.0265
     34 H          17.1210   -0.2249    0.0000 H       1  UNL1        0.0265
     35 H          12.8598   -0.2249    0.0000 H       1  UNL1        0.0265
     36 H          13.6569   -0.2249    0.0000 H       1  UNL1        0.0265
     37 H          17.9870    1.2250    0.0000 H       1  UNL1        0.0265
     38 H          17.1899    1.2250    0.0000 H       1  UNL1        0.0265
     39 H          12.7908    1.2250    0.0000 H       1  UNL1        0.0265
     40 H          11.9938    1.2250    0.0000 H       1  UNL1        0.0265
     41 H          18.0560   -0.2249    0.0000 H       1  UNL1        0.0265
     42 H          18.8530   -0.2249    0.0000 H       1  UNL1        0.0265
     43 H          11.1278   -0.2249    0.0000 H       1  UNL1        0.0265
     44 H          11.9248   -0.2249    0.0000 H       1  UNL1        0.0265
     45 H          19.7190    1.2250    0.0000 H       1  UNL1        0.0265
     46 H          18.9220    1.2250    0.0000 H       1  UNL1        0.0265
     47 H          11.0588    1.2250    0.0000 H       1  UNL1        0.0265
     48 H          10.2617    1.2250    0.0000 H       1  UNL1        0.0265
     49 H          19.7880   -0.2249    0.0000 H       1  UNL1        0.0265
     50 H          20.5851   -0.2249    0.0000 H       1  UNL1        0.0265
     51 H           9.3957   -0.2249    0.0000 H       1  UNL1        0.0266
     52 H          10.1928   -0.2249    0.0000 H       1  UNL1        0.0266
     53 H          21.4511    1.2250    0.0000 H       1  UNL1        0.0265
     54 H          20.6540    1.2250    0.0000 H       1  UNL1        0.0265
     55 H           9.3267    1.2250    0.0000 H       1  UNL1        0.0288
     56 H           8.5297    1.2250    0.0000 H       1  UNL1        0.0288
     57 H          21.5201   -0.2249    0.0000 H       1  UNL1        0.0263
     58 H          22.3171   -0.2249    0.0000 H       1  UNL1        0.0263
     59 H           7.6636   -0.2249    0.0000 H       1  UNL1        0.0574
     60 H           8.4607   -0.2249    0.0000 H       1  UNL1        0.0574
     61 H          23.0946    0.2131    0.0000 H       1  UNL1        0.0230
     62 H          23.3215    1.0600    0.0000 H       1  UNL1        0.0230
     63 H          22.4746    1.2869    0.0000 H       1  UNL1        0.0230
     64 H           4.1306    1.2250    0.0000 H       1  UNL1        0.0288
     65 H           3.3335    1.2250    0.0000 H       1  UNL1        0.0288
     66 H           4.1996   -0.2249    0.0000 H       1  UNL1        0.0574
     67 H           4.9966   -0.2249    0.0000 H       1  UNL1        0.0574
     68 H           2.4675   -0.2249    0.0000 H       1  UNL1        0.0263
     69 H           3.2646   -0.2249    0.0000 H       1  UNL1        0.0263
     70 H           2.3100    1.2869    0.0000 H       1  UNL1        0.0230
     71 H           1.4631    1.0600    0.0000 H       1  UNL1        0.0230
     72 H           1.6900    0.2131    0.0000 H       1  UNL1        0.0230
@<TRIPOS>BOND
     1     1     2    1
     2     1     3    1
     3     1     4    2
     4     2    21    1
     5     3    24    1
     6     5     6    1
     7     5     7    1
     8     5    27    1
     9     5    28    1
    10     6     8    1
    11     6    29    1
    12     6    30    1
    13     7     9    1
    14     7    31    1
    15     7    32    1
    16     8    10    1
    17     8    33    1
    18     8    34    1
    19     9    11    1
    20     9    35    1
    21     9    36    1
    22    10    12    1
    23    10    37    1
    24    10    38    1
    25    11    13    1
    26    11    39    1
    27    11    40    1
    28    12    14    1
    29    12    41    1
    30    12    42    1
    31    13    15    1
    32    13    43    1
    33    13    44    1
    34    14    16    1
    35    14    45    1
    36    14    46    1
    37    15    17    1
    38    15    47    1
    39    15    48    1
    40    16    18    1
    41    16    49    1
    42    16    50    1
    43    17    19    1
    44    17    51    1
    45    17    52    1
    46    18    20    1
    47    18    53    1
    48    18    54    1
    49    19    21    1
    50    19    55    1
    51    19    56    1
    52    20    22    1
    53    20    57    1
    54    20    58    1
    55    21    59    1
    56    21    60    1
    57    22    61    1
    58    22    62    1
    59    22    63    1
    60    23    24    1
    61    23    25    1
    62    23    64    1
    63    23    65    1
    64    24    66    1
    65    24    67    1
    66    25    26    1
    67    25    68    1
    68    25    69    1
    69    26    70    1
    70    26    71    1
    71    26    72    1
