@<TRIPOS>MOLECULE
IMPHY010705
 34 39 0 0 0
SMALL
GASTEIGER

@<TRIPOS>ATOM
      1 C           8.5980   -8.0534    0.0000 C.3     1  UNL1        0.0076
      2 C           7.3239   -9.2108    0.0000 C.3     1  UNL1        0.0076
      3 C           1.4687   -3.2389    0.0000 C.3     1  UNL1        0.0083
      4 C           6.2248   -6.6431    0.0000 C.3     1  UNL1        0.0467
      5 C           0.6614   -5.7774    0.0000 C.3     1  UNL1        0.0262
      6 C           1.5659   -6.7695    0.0000 C.2     1  UNL1       -0.0306
      7 C           0.5544   -2.1106    0.0000 C.ar    1  UNL1        0.0430
      8 C           1.0699   -4.5130    0.0000 C.3     1  UNL1        0.0125
      9 C           0.0000   -0.9045    0.0000 C.ar    1  UNL1        0.1795
     10 C           8.8898   -6.0595    0.0000 C.3     1  UNL1        0.1135
     11 C           3.7641   -7.4601    0.0000 C.3     1  UNL1        0.0663
     12 C           2.1495   -0.6614    0.0000 C.ar    1  UNL1        0.1789
     13 C           2.8693   -6.4777    0.0000 C.2     1  UNL1       -0.0273
     14 C           1.8772   -1.9647    0.0000 C.ar    1  UNL1        0.0583
     15 C           7.6740   -6.6042    0.0000 C.3     1  UNL1        0.0573
     16 C           8.7439   -4.7270    0.0000 C.2     1  UNL1        0.3170
     17 C           3.2680   -5.2036    0.0000 C.2     1  UNL1       -0.0185
     18 C           4.5714   -4.9215    0.0000 C.2     1  UNL1        0.0826
     19 C           2.7720   -2.9471    0.0000 C.3     1  UNL1        0.1980
     20 C           4.9799   -3.6474    0.0000 C.2     1  UNL1        0.3396
     21 C           5.9719   -8.1604    0.0000 C.2     1  UNL1        0.1804
     22 C           7.2753   -7.8783    0.0000 C.3     1  UNL1        0.0579
     23 C           2.3732   -4.2212    0.0000 C.3     1  UNL1        0.0599
     24 C           6.7792   -5.6218    0.0000 C.3     1  UNL1        0.1687
     25 C           5.0674   -7.1780    0.0000 C.3     1  UNL1        0.2133
     26 C           5.4759   -5.9039    0.0000 C.3     1  UNL1        0.2159
     27 O           9.7263   -3.8322    0.0000 O.2     1  UNL1       -0.2501
     28 O           6.2832   -3.3653    0.0000 O.2     1  UNL1       -0.2452
     29 O           5.5634   -9.4345    0.0000 O.2     1  UNL1       -0.2934
     30 O           4.6686   -8.4521    0.0000 O.3     1  UNL1       -0.2148
     31 O           5.8941   -4.6200    0.0000 O.3     1  UNL1       -0.2143
     32 O           0.9824    0.0000    0.0000 O.2     1  UNL1       -0.4475
     33 O           4.0753   -2.6650    0.0000 O.3     1  UNL1       -0.4444
     34 O           7.4309   -4.4644    0.0000 O.3     1  UNL1       -0.4528
@<TRIPOS>BOND
     1     1    22    1
     2     2    22    1
     3     3    23    1
     4     4    24    1
     5     5     6    1
     6     5     8    1
     7     6    13    2
     8     7     9   ar
     9     7    14   ar
    10     8    23    1
    11     9    32   ar
    12    10    15    1
    13    10    16    1
    14    11    13    1
    15    11    25    1
    16    12    14   ar
    17    12    32   ar
    18    13    17    1
    19    14    19    1
    20    15    22    1
    21    15    24    1
    22    16    27    2
    23    16    34    1
    24    17    18    2
    25    17    23    1
    26    18    20    1
    27    18    26    1
    28    19    23    1
    29    19    33    1
    30    20    28    2
    31    20    33    1
    32    21    22    1
    33    21    25    1
    34    21    29    2
    35    24    26    1
    36    24    34    1
    37    25    26    1
    38    25    30    1
    39    26    31    1
