@<TRIPOS>MOLECULE
IMPHY013379
 98 103 0 0 0
SMALL
GASTEIGER

@<TRIPOS>ATOM
      1 O           8.5991    2.1224    0.0000 O.3     1  UNL1       -0.3302
      2 O          14.6720    1.6068    0.0000 O.3     1  UNL1       -0.3302
      3 O          10.3312    2.1224    0.0000 O.3     1  UNL1       -0.4598
      4 O          13.8233    3.1167    0.0000 O.3     1  UNL1       -0.4515
      5 O           6.8671    0.1224    0.0000 O.3     1  UNL1       -0.3864
      6 O           8.5991   -0.8776    0.0000 O.3     1  UNL1       -0.3864
      7 O          13.7771   -0.8830    0.0000 O.3     1  UNL1       -0.3864
      8 O          12.0567    0.1370    0.0000 O.3     1  UNL1       -0.3864
      9 O          10.3312    0.1224    0.0000 O.3     1  UNL1       -0.3829
     10 O          12.0799    2.1368    0.0000 O.3     1  UNL1       -0.3829
     11 O           6.0010    1.6224    0.0000 O.3     1  UNL1       -0.4616
     12 O          15.5090   -0.9030    0.0000 O.3     1  UNL1       -0.4589
     13 O          12.1145    5.1366    0.0000 O.2     1  UNL1       -0.1997
     14 O           8.5849    5.2016    0.0000 O.3     1  UNL1       -0.5063
     15 O           5.1350    3.1224    0.0000 O.2     1  UNL1       -0.2502
     16 O          17.2410   -0.9231    0.0000 O.2     1  UNL1       -0.2456
     17 O          16.4617    6.5864    0.0000 O.3     1  UNL1       -0.5068
     18 O           2.5369    1.6224    0.0000 O.3     1  UNL1       -0.4802
     19 O           3.4030    3.1224    0.0000 O.2     1  UNL1       -0.2504
     20 O          15.4397   -6.9026    0.0000 O.3     1  UNL1       -0.5068
     21 C           7.7331    0.6224    0.0000 C.3     1  UNL1        0.1130
     22 C           8.5991    0.1224    0.0000 C.3     1  UNL1        0.1152
     23 C          13.7887    0.1169    0.0000 C.3     1  UNL1        0.1130
     24 C          12.9285    0.6269    0.0000 C.3     1  UNL1        0.1152
     25 C           7.7331    1.6224    0.0000 C.3     1  UNL1        0.1250
     26 C           9.4651    0.6224    0.0000 C.3     1  UNL1        0.1454
     27 C          14.6604    0.6069    0.0000 C.3     1  UNL1        0.1250
     28 C          12.9400    1.6268    0.0000 C.3     1  UNL1        0.1454
     29 C           9.4651    1.6224    0.0000 C.3     1  UNL1        0.2309
     30 C          13.8118    2.1168    0.0000 C.3     1  UNL1        0.2313
     31 C           6.8671    2.1224    0.0000 C.3     1  UNL1        0.1212
     32 C          15.5206    0.0969    0.0000 C.3     1  UNL1        0.1215
     33 C          10.3312    3.1224    0.0000 C.ar    1  UNL1        0.1437
     34 C          12.9632    3.6267    0.0000 C.ar    1  UNL1        0.2288
     35 C          11.2312    3.6467    0.0000 C.ar    1  UNL1        0.1245
     36 C          12.0914    3.1368    0.0000 C.ar    1  UNL1        0.0093
     37 C          12.9747    4.6266    0.0000 C.ar    1  UNL1        0.4045
     38 C          11.2428    4.6467    0.0000 C.ar    1  UNL1        0.3708
     39 C           9.4311    3.6467    0.0000 C.ar    1  UNL1        0.0229
     40 C          10.3551    5.1916    0.0000 C.ar    1  UNL1        0.0847
     41 C           9.4431    4.6883    0.0000 C.ar    1  UNL1        0.1293
     42 C          13.8465    5.1166    0.0000 C.ar    1  UNL1        0.0830
     43 C           5.1350    2.1224    0.0000 C.2     1  UNL1        0.3180
     44 C          16.3692   -1.4130    0.0000 C.2     1  UNL1        0.3320
     45 C           4.2690    1.6224    0.0000 C.3     1  UNL1        0.1418
     46 C          13.8580    6.1165    0.0000 C.ar    1  UNL1       -0.0420
     47 C          14.7067    4.6066    0.0000 C.ar    1  UNL1       -0.0420
     48 C          16.3577   -2.4130    0.0000 C.2     1  UNL1        0.0231
     49 C          14.7298    6.6065    0.0000 C.ar    1  UNL1       -0.0193
     50 C          15.5784    5.0966    0.0000 C.ar    1  UNL1       -0.0193
     51 C          15.5900    6.0965    0.0000 C.ar    1  UNL1        0.1169
     52 C           3.4030    2.1224    0.0000 C.2     1  UNL1        0.3155
     53 C          15.4859   -2.9029    0.0000 C.2     1  UNL1       -0.0478
     54 C          15.4743   -3.9028    0.0000 C.ar    1  UNL1       -0.0246
     55 C          14.6026   -4.3928    0.0000 C.ar    1  UNL1       -0.0511
     56 C          16.3345   -4.4128    0.0000 C.ar    1  UNL1       -0.0511
     57 C          14.5910   -5.3927    0.0000 C.ar    1  UNL1       -0.0196
     58 C          16.3230   -5.4128    0.0000 C.ar    1  UNL1       -0.0196
     59 C          15.4512   -5.9027    0.0000 C.ar    1  UNL1        0.1169
     60 H           7.7331    0.0024    0.0000 H       1  UNL1        0.0647
     61 H           9.1360   -0.1876    0.0000 H       1  UNL1        0.0648
     62 H          13.2482   -0.1868    0.0000 H       1  UNL1        0.0647
     63 H          13.4690    0.9307    0.0000 H       1  UNL1        0.0648
     64 H           7.7331    2.2424    0.0000 H       1  UNL1        0.0658
     65 H           9.4651    0.0024    0.0000 H       1  UNL1        0.0683
     66 H          15.2009    0.9106    0.0000 H       1  UNL1        0.0658
     67 H          12.3996    1.3231    0.0000 H       1  UNL1        0.0683
     68 H          10.0021    1.3124    0.0000 H       1  UNL1        0.1084
     69 H          13.2785    2.4330    0.0000 H       1  UNL1        0.1084
     70 H           7.2656    2.5974    0.0000 H       1  UNL1        0.0724
     71 H           6.4685    2.5974    0.0000 H       1  UNL1        0.0724
     72 H          16.1299   -0.0178    0.0000 H       1  UNL1        0.0725
     73 H          15.7394    0.6770    0.0000 H       1  UNL1        0.0725
     74 H           6.8671   -0.4976    0.0000 H       1  UNL1        0.2100
     75 H           8.0622   -1.1876    0.0000 H       1  UNL1        0.2100
     76 H          13.2366   -1.1868    0.0000 H       1  UNL1        0.2100
     77 H          12.0496   -0.4830    0.0000 H       1  UNL1        0.2100
     78 H          10.3312   -0.4976    0.0000 H       1  UNL1        0.2102
     79 H          11.5394    1.8330    0.0000 H       1  UNL1        0.2102
     80 H          12.0842    2.5168    0.0000 H       1  UNL1        0.0667
     81 H           8.8918    3.3409    0.0000 H       1  UNL1        0.0691
     82 H          10.3694    5.8115    0.0000 H       1  UNL1        0.0749
     83 H           3.8705    1.1475    0.0000 H       1  UNL1        0.0493
     84 H           4.6675    1.1475    0.0000 H       1  UNL1        0.0493
     85 H          13.3247    6.4327    0.0000 H       1  UNL1        0.0628
     86 H          14.6995    3.9866    0.0000 H       1  UNL1        0.0628
     87 H          16.8910   -2.7291    0.0000 H       1  UNL1        0.0689
     88 H           8.5945    5.8215    0.0000 H       1  UNL1        0.2921
     89 H          14.7370    7.2264    0.0000 H       1  UNL1        0.0654
     90 H          16.1117    4.7804    0.0000 H       1  UNL1        0.0654
     91 H          14.9526   -2.5867    0.0000 H       1  UNL1        0.0626
     92 H          16.4689    7.2064    0.0000 H       1  UNL1        0.2921
     93 H           2.0000    1.9324    0.0000 H       1  UNL1        0.2951
     94 H          14.0693   -4.0766    0.0000 H       1  UNL1        0.0625
     95 H          16.8750   -4.1090    0.0000 H       1  UNL1        0.0625
     96 H          14.0505   -5.6965    0.0000 H       1  UNL1        0.0654
     97 H          16.8563   -5.7289    0.0000 H       1  UNL1        0.0654
     98 H          14.8992   -7.2064    0.0000 H       1  UNL1        0.2921
@<TRIPOS>UNITY_ATOM_ATTR
13 1
charge 1
@<TRIPOS>BOND
     1     1    25    1
     2     1    29    1
     3     2    27    1
     4     2    30    1
     5    29     3    1
     6     3    33    1
     7    30     4    1
     8     4    34    1
     9    21     5    1
    10     5    74    1
    11    22     6    1
    12     6    75    1
    13    23     7    1
    14     7    76    1
    15     8    24    1
    16     8    77    1
    17     9    26    1
    18     9    78    1
    19    10    28    1
    20    10    79    1
    21    11    31    1
    22    11    43    1
    23    12    32    1
    24    12    44    1
    25    13    37   ar
    26    13    38   ar
    27    14    41    1
    28    14    88    1
    29    15    43    2
    30    16    44    2
    31    17    51    1
    32    17    92    1
    33    18    52    1
    34    18    93    1
    35    19    52    2
    36    20    59    1
    37    20    98    1
    38    21    22    1
    39    21    25    1
    40    21    60    1
    41    22    26    1
    42    22    61    1
    43    23    24    1
    44    23    27    1
    45    23    62    1
    46    24    28    1
    47    24    63    1
    48    25    31    1
    49    25    64    1
    50    26    29    1
    51    26    65    1
    52    27    32    1
    53    27    66    1
    54    28    30    1
    55    28    67    1
    56    29    68    1
    57    30    69    1
    58    31    70    1
    59    31    71    1
    60    32    72    1
    61    32    73    1
    62    33    35   ar
    63    33    39   ar
    64    34    36   ar
    65    34    37   ar
    66    35    36   ar
    67    35    38   ar
    68    36    80    1
    69    37    42    1
    70    38    40   ar
    71    39    41   ar
    72    39    81    1
    73    40    41   ar
    74    40    82    1
    75    42    46   ar
    76    42    47   ar
    77    43    45    1
    78    44    48    1
    79    45    52    1
    80    45    83    1
    81    45    84    1
    82    46    49   ar
    83    46    85    1
    84    47    50   ar
    85    47    86    1
    86    48    53    2
    87    48    87    1
    88    49    51   ar
    89    49    89    1
    90    50    51   ar
    91    50    90    1
    92    53    54    1
    93    53    91    1
    94    54    55   ar
    95    54    56   ar
    96    55    57   ar
    97    55    94    1
    98    56    58   ar
    99    56    95    1
   100    57    59   ar
   101    57    96    1
   102    58    59   ar
   103    58    97    1
