@<TRIPOS>MOLECULE
IMPHY013107
 43 46 0 0 0
SMALL
GASTEIGER

@<TRIPOS>ATOM
      1 O           5.5321   -1.7673    0.0000 O.3     1  UNL1       -0.3855
      2 O           2.9176   -2.3019    0.0000 O.2     1  UNL1       -0.2756
      3 N           6.4421    0.7395    0.0000 N.3     1  UNL1       -0.2963
      4 N           3.8000   -0.7673    0.0000 N.am    1  UNL1       -0.2953
      5 C           5.5321    0.2327    0.0000 C.3     1  UNL1        0.0451
      6 C           4.6660    0.7327    0.0000 C.3     1  UNL1       -0.0040
      7 C           5.5321   -0.7673    0.0000 C.3     1  UNL1        0.0975
      8 C           3.8000    0.2327    0.0000 C.3     1  UNL1        0.0304
      9 C           4.6660   -1.2673    0.0000 C.3     1  UNL1        0.0453
     10 C           4.6500    1.7742    0.0000 C.3     1  UNL1       -0.0458
     11 C           6.3903   -1.2643    0.0000 C.3     1  UNL1       -0.0199
     12 C           6.4501    1.7811    0.0000 C.3     1  UNL1       -0.0007
     13 C           7.2814    0.2113    0.0000 C.3     1  UNL1       -0.0006
     14 C           5.5480    2.3019    0.0000 C.3     1  UNL1       -0.0398
     15 C           2.9061    0.7673    0.0000 C.3     1  UNL1       -0.0335
     16 C           7.2558   -0.7801    0.0000 C.3     1  UNL1       -0.0375
     17 C           2.0000    0.2535    0.0000 C.3     1  UNL1       -0.0431
     18 C           2.9061   -1.3020    0.0000 C.2     1  UNL1        0.2159
     19 C           2.0000   -0.7881    0.0000 C.3     1  UNL1        0.0242
     20 H           5.5321    1.0827    0.0000 H       1  UNL1        0.0495
     21 H           3.9267    1.1520    0.0000 H       1  UNL1        0.0335
     22 H           3.8066    1.0826    0.0000 H       1  UNL1        0.0504
     23 H           4.2675   -1.7423    0.0000 H       1  UNL1        0.0493
     24 H           5.0646   -1.7423    0.0000 H       1  UNL1        0.0493
     25 H           4.4319    2.3546    0.0000 H       1  UNL1        0.0269
     26 H           4.0408    1.6587    0.0000 H       1  UNL1        0.0269
     27 H           5.9892   -1.7371    0.0000 H       1  UNL1        0.0294
     28 H           6.7843   -1.7430    0.0000 H       1  UNL1        0.0294
     29 H           7.0601    1.6703    0.0000 H       1  UNL1        0.0427
     30 H           6.6636    2.3632    0.0000 H       1  UNL1        0.0427
     31 H           7.8885    0.0854    0.0000 H       1  UNL1        0.0427
     32 H           7.5131    0.7863    0.0000 H       1  UNL1        0.0427
     33 H           5.9453    2.7779    0.0000 H       1  UNL1        0.0278
     34 H           5.1470    2.7748    0.0000 H       1  UNL1        0.0278
     35 H           3.3107    1.2371    0.0000 H       1  UNL1        0.0283
     36 H           2.5124    1.2464    0.0000 H       1  UNL1        0.0283
     37 H           7.4575   -1.3664    0.0000 H       1  UNL1        0.0278
     38 H           7.8685   -0.6857    0.0000 H       1  UNL1        0.0278
     39 H           1.7909    0.8372    0.0000 H       1  UNL1        0.0270
     40 H           1.3891    0.1474    0.0000 H       1  UNL1        0.0270
     41 H           6.0690   -2.0773    0.0000 H       1  UNL1        0.2103
     42 H           1.3891   -0.6821    0.0000 H       1  UNL1        0.0358
     43 H           1.7909   -1.3718    0.0000 H       1  UNL1        0.0358
@<TRIPOS>BOND
     1     7     1    1
     2     1    41    1
     3     2    18    2
     4     3     5    1
     5     3    12    1
     6     3    13    1
     7     4     8    1
     8     4     9    1
     9     4    18   am
    10     5     6    1
    11     5     7    1
    12     5    20    1
    13     6     8    1
    14     6    10    1
    15     6    21    1
    16     7     9    1
    17     7    11    1
    18     8    15    1
    19     8    22    1
    20     9    23    1
    21     9    24    1
    22    10    14    1
    23    10    25    1
    24    10    26    1
    25    11    16    1
    26    11    27    1
    27    11    28    1
    28    12    14    1
    29    12    29    1
    30    12    30    1
    31    13    16    1
    32    13    31    1
    33    13    32    1
    34    14    33    1
    35    14    34    1
    36    15    17    1
    37    15    35    1
    38    15    36    1
    39    16    37    1
    40    16    38    1
    41    17    19    1
    42    17    39    1
    43    17    40    1
    44    18    19    1
    45    19    42    1
    46    19    43    1
