@<TRIPOS>MOLECULE
IMPHY011443
 82 86 0 0 0
SMALL
GASTEIGER

@<TRIPOS>ATOM
      1 O           2.5357   -2.8693    0.0000 O.3     1  UNL1       -0.3912
      2 O          11.4608    0.2172    0.0000 O.3     1  UNL1       -0.4802
      3 O          10.6064   -1.2894    0.0000 O.2     1  UNL1       -0.2504
      4 O          11.2187    3.2426    0.0000 O.3     1  UNL1       -0.3945
      5 C           7.0628   -1.3170    0.0000 C.3     1  UNL1       -0.0194
      6 C           6.1968   -0.8170    0.0000 C.3     1  UNL1       -0.0257
      7 C           5.2868   -1.3238    0.0000 C.3     1  UNL1       -0.0250
      8 C           7.9288   -0.8170    0.0000 C.3     1  UNL1       -0.0051
      9 C           5.2787   -2.3654    0.0000 C.3     1  UNL1       -0.0278
     10 C           7.0789   -2.3585    0.0000 C.3     1  UNL1       -0.0463
     11 C           7.9288    0.1830    0.0000 C.2     1  UNL1       -0.0629
     12 C           6.1808   -2.8862    0.0000 C.3     1  UNL1       -0.0486
     13 C           4.3433   -2.9152    0.0000 C.3     1  UNL1       -0.0056
     14 C           8.8228    0.7177    0.0000 C.3     1  UNL1       -0.0031
     15 C           6.1968    0.1830    0.0000 C.3     1  UNL1       -0.0306
     16 C           8.8228   -1.3516    0.0000 C.3     1  UNL1       -0.0424
     17 C           4.3599   -0.7597    0.0000 C.3     1  UNL1       -0.0447
     18 C           9.7288    0.2038    0.0000 C.3     1  UNL1        0.0741
     19 C           7.7056   -2.0830    0.0000 C.3     1  UNL1       -0.0585
     20 C           9.7288   -0.8378    0.0000 C.3     1  UNL1       -0.0359
     21 C           3.4037   -2.3727    0.0000 C.3     1  UNL1        0.0606
     22 C           7.0628    0.6830    0.0000 C.2     1  UNL1       -0.0836
     23 C           5.2945   -0.3239    0.0000 C.3     1  UNL1       -0.0590
     24 C           3.4120   -1.2877    0.0000 C.3     1  UNL1       -0.0258
     25 C           8.2709   -1.7566    0.0000 C.3     1  UNL1       -0.0553
     26 C           8.7977    1.8024    0.0000 C.3     1  UNL1       -0.0380
     27 C          10.6726    0.7391    0.0000 C.3     1  UNL1       -0.0361
     28 C           9.7288    2.3593    0.0000 C.3     1  UNL1       -0.0083
     29 C          10.6726    1.8241    0.0000 C.3     1  UNL1       -0.0445
     30 C           3.8467   -3.7831    0.0000 C.3     1  UNL1       -0.0572
     31 C           4.8466   -3.7792    0.0000 C.3     1  UNL1       -0.0572
     32 C          10.5987   -0.2895    0.0000 C.2     1  UNL1        0.3115
     33 C          10.2188    3.2311    0.0000 C.3     1  UNL1        0.0496
     34 C           9.2188    3.2195    0.0000 C.3     1  UNL1       -0.0575
     35 H           6.9329   -0.3920    0.0000 H       1  UNL1        0.0315
     36 H           5.2820   -3.2154    0.0000 H       1  UNL1        0.0312
     37 H           7.2969   -2.9389    0.0000 H       1  UNL1        0.0271
     38 H           7.6880   -2.2430    0.0000 H       1  UNL1        0.0271
     39 H           5.7835   -3.3622    0.0000 H       1  UNL1        0.0268
     40 H           6.5818   -3.3591    0.0000 H       1  UNL1        0.0268
     41 H           9.5522    1.1540    0.0000 H       1  UNL1        0.0357
     42 H           5.9847    0.7656    0.0000 H       1  UNL1        0.0310
     43 H           5.5862    0.0754    0.0000 H       1  UNL1        0.0310
     44 H           8.4182   -1.8214    0.0000 H       1  UNL1        0.0274
     45 H           9.2164   -1.8307    0.0000 H       1  UNL1        0.0274
     46 H           4.7681   -0.2931    0.0000 H       1  UNL1        0.0271
     47 H           3.9700   -0.2777    0.0000 H       1  UNL1        0.0271
     48 H           7.2306   -2.4816    0.0000 H       1  UNL1        0.0235
     49 H           8.1041   -2.5580    0.0000 H       1  UNL1        0.0235
     50 H           8.1805   -1.6845    0.0000 H       1  UNL1        0.0235
     51 H           9.9379   -1.4215    0.0000 H       1  UNL1        0.0276
     52 H          10.3397   -0.7317    0.0000 H       1  UNL1        0.0276
     53 H           3.4025   -2.9927    0.0000 H       1  UNL1        0.0599
     54 H           7.0628    1.3030    0.0000 H       1  UNL1        0.0572
     55 H           5.9145   -0.3286    0.0000 H       1  UNL1        0.0235
     56 H           5.2993    0.2961    0.0000 H       1  UNL1        0.0235
     57 H           4.6745   -0.3191    0.0000 H       1  UNL1        0.0235
     58 H           3.2075   -0.7024    0.0000 H       1  UNL1        0.0290
     59 H           2.8004   -1.3891    0.0000 H       1  UNL1        0.0290
     60 H           7.6884   -1.9688    0.0000 H       1  UNL1        0.0238
     61 H           8.4830   -2.3392    0.0000 H       1  UNL1        0.0238
     62 H           8.8535   -1.5445    0.0000 H       1  UNL1        0.0238
     63 H           8.5752    2.3811    0.0000 H       1  UNL1        0.0277
     64 H           8.1894    1.6822    0.0000 H       1  UNL1        0.0277
     65 H          10.8817    0.1554    0.0000 H       1  UNL1        0.0276
     66 H          11.2835    0.8452    0.0000 H       1  UNL1        0.0276
     67 H          11.2835    1.7180    0.0000 H       1  UNL1        0.0272
     68 H          10.8817    2.4078    0.0000 H       1  UNL1        0.0272
     69 H           4.3109   -4.0913    0.0000 H       1  UNL1        0.0236
     70 H           5.1587   -4.3150    0.0000 H       1  UNL1        0.0236
     71 H           5.3824   -3.4672    0.0000 H       1  UNL1        0.0236
     72 H           3.3085   -3.4752    0.0000 H       1  UNL1        0.0236
     73 H           3.5387   -4.3212    0.0000 H       1  UNL1        0.0236
     74 H           4.3848   -4.0910    0.0000 H       1  UNL1        0.0236
     75 H          10.3194    3.8428    0.0000 H       1  UNL1        0.0562
     76 H           9.6338    3.4364    0.0000 H       1  UNL1        0.0562
     77 H           9.7522    3.5357    0.0000 H       1  UNL1        0.0236
     78 H           8.9027    3.7528    0.0000 H       1  UNL1        0.0236
     79 H           8.6855    2.9033    0.0000 H       1  UNL1        0.0236
     80 H           2.0000   -2.5572    0.0000 H       1  UNL1        0.2098
     81 H          12.0001   -0.0887    0.0000 H       1  UNL1        0.2951
     82 H          11.5225    3.7831    0.0000 H       1  UNL1        0.2094
@<TRIPOS>BOND
     1    21     1    1
     2     1    80    1
     3     2    32    1
     4     2    81    1
     5     3    32    2
     6     4    33    1
     7     4    82    1
     8     5     6    1
     9     5     8    1
    10     5    10    1
    11     5    19    1
    12     6     7    1
    13     6    15    1
    14     6    35    1
    15     7     9    1
    16     7    17    1
    17     7    23    1
    18     8    11    1
    19     8    16    1
    20     8    25    1
    21     9    12    1
    22     9    13    1
    23     9    36    1
    24    10    12    1
    25    10    37    1
    26    10    38    1
    27    11    14    1
    28    11    22    2
    29    12    39    1
    30    12    40    1
    31    13    21    1
    32    13    30    1
    33    13    31    1
    34    14    18    1
    35    14    26    1
    36    14    41    1
    37    15    22    1
    38    15    42    1
    39    15    43    1
    40    16    20    1
    41    16    44    1
    42    16    45    1
    43    17    24    1
    44    17    46    1
    45    17    47    1
    46    18    20    1
    47    18    27    1
    48    18    32    1
    49    19    48    1
    50    19    49    1
    51    19    50    1
    52    20    51    1
    53    20    52    1
    54    21    24    1
    55    21    53    1
    56    22    54    1
    57    23    55    1
    58    23    56    1
    59    23    57    1
    60    24    58    1
    61    24    59    1
    62    25    60    1
    63    25    61    1
    64    25    62    1
    65    26    28    1
    66    26    63    1
    67    26    64    1
    68    27    29    1
    69    27    65    1
    70    27    66    1
    71    28    29    1
    72    28    33    1
    73    28    34    1
    74    29    67    1
    75    29    68    1
    76    30    72    1
    77    30    73    1
    78    30    74    1
    79    31    69    1
    80    31    70    1
    81    31    71    1
    82    33    75    1
    83    33    76    1
    84    34    77    1
    85    34    78    1
    86    34    79    1
