@<TRIPOS>MOLECULE
IMPHY013115
 125 131 0 0 0
SMALL
GASTEIGER

@<TRIPOS>ATOM
      1 O           6.8671   -5.0496    0.0000 O.3     1  UNL1       -0.3423
      2 O           5.0597   -3.9968    0.0000 O.3     1  UNL1       -0.3892
      3 O           9.3112   -4.3579    0.0000 O.3     1  UNL1       -0.3944
      4 O           8.6209    4.2298    0.0000 O.3     1  UNL1       -0.4318
      5 O           9.5042    2.7400    0.0000 O.2     1  UNL1       -0.2501
      6 O           5.1350   -5.0496    0.0000 O.3     1  UNL1       -0.3405
      7 O           6.8671   -7.0496    0.0000 O.3     1  UNL1       -0.3841
      8 O           9.4695    5.7398    0.0000 O.3     1  UNL1       -0.3312
      9 O           5.1350   -8.0496    0.0000 O.3     1  UNL1       -0.3864
     10 O           3.4030   -7.0496    0.0000 O.3     1  UNL1       -0.3865
     11 O          10.3644    3.2499    0.0000 O.3     1  UNL1       -0.3829
     12 O          12.0847    4.2699    0.0000 O.3     1  UNL1       -0.3864
     13 O           2.5369   -5.5496    0.0000 O.3     1  UNL1       -0.3924
     14 O          12.0616    6.2698    0.0000 O.3     1  UNL1       -0.3865
     15 O           9.4464    7.7396    0.0000 O.3     1  UNL1       -0.3924
     16 C           7.7681   -0.3494    0.0000 C.3     1  UNL1       -0.0194
     17 C           6.8920   -1.8943    0.0000 C.3     1  UNL1       -0.0225
     18 C           6.9040   -0.8527    0.0000 C.3     1  UNL1       -0.0257
     19 C           7.7643    0.6506    0.0000 C.3     1  UNL1       -0.0051
     20 C           7.7920   -2.4186    0.0000 C.3     1  UNL1       -0.0253
     21 C           8.6801   -0.8527    0.0000 C.3     1  UNL1       -0.0463
     22 C           7.8046   -3.5035    0.0000 C.3     1  UNL1        0.0231
     23 C           8.6921   -1.8943    0.0000 C.3     1  UNL1       -0.0485
     24 C           6.8963    1.1473    0.0000 C.2     1  UNL1       -0.0629
     25 C           5.9421   -2.4186    0.0000 C.3     1  UNL1       -0.0184
     26 C           6.0361   -0.3560    0.0000 C.3     1  UNL1       -0.0306
     27 C           6.8762    2.1887    0.0000 C.3     1  UNL1       -0.0031
     28 C           8.6723    1.1610    0.0000 C.3     1  UNL1       -0.0424
     29 C           7.7722    2.7199    0.0000 C.3     1  UNL1        0.0744
     30 C           6.8671   -4.0496    0.0000 C.3     1  UNL1        0.0953
     31 C           8.7522   -0.1719    0.0000 C.3     1  UNL1       -0.0585
     32 C           8.6763    2.2026    0.0000 C.3     1  UNL1       -0.0359
     33 C           5.9295   -3.5035    0.0000 C.3     1  UNL1        0.0825
     34 C           6.0279   -1.3909    0.0000 C.3     1  UNL1       -0.0589
     35 C           6.0322    0.6440    0.0000 C.2     1  UNL1       -0.0836
     36 C           8.7497    0.4808    0.0000 C.3     1  UNL1       -0.0553
     37 C           5.9223    2.7057    0.0000 C.3     1  UNL1       -0.0403
     38 C           7.7764    3.8049    0.0000 C.3     1  UNL1       -0.0362
     39 C           5.9014    3.7905    0.0000 C.3     1  UNL1       -0.0343
     40 C           8.3113   -4.3656    0.0000 C.3     1  UNL1        0.0523
     41 C           8.8046   -3.4958    0.0000 C.3     1  UNL1       -0.0547
     42 C           6.8347    4.3438    0.0000 C.3     1  UNL1       -0.0468
     43 C           8.6324    3.2299    0.0000 C.2     1  UNL1        0.3161
     44 C           5.3881    4.6487    0.0000 C.3     1  UNL1       -0.0598
     45 C           4.9015    3.7750    0.0000 C.3     1  UNL1       -0.0598
     46 C           6.0010   -5.5496    0.0000 C.3     1  UNL1        0.1883
     47 C           6.0010   -6.5496    0.0000 C.3     1  UNL1        0.1341
     48 C           9.4810    4.7398    0.0000 C.3     1  UNL1        0.2337
     49 C           5.1350   -7.0496    0.0000 C.3     1  UNL1        0.1141
     50 C           4.2690   -5.5496    0.0000 C.3     1  UNL1        0.1130
     51 C           4.2690   -6.5496    0.0000 C.3     1  UNL1        0.1119
     52 C          10.3528    4.2499    0.0000 C.3     1  UNL1        0.1455
     53 C          11.2130    4.7599    0.0000 C.3     1  UNL1        0.1152
     54 C           3.4030   -5.0496    0.0000 C.3     1  UNL1        0.0730
     55 C          10.3297    6.2497    0.0000 C.3     1  UNL1        0.1140
     56 C          11.2014    5.7598    0.0000 C.3     1  UNL1        0.1120
     57 C          10.3181    7.2497    0.0000 C.3     1  UNL1        0.0731
     58 H           7.6385   -1.2805    0.0000 H       1  UNL1        0.0315
     59 H           8.5314   -2.8379    0.0000 H       1  UNL1        0.0313
     60 H           9.2921   -0.9517    0.0000 H       1  UNL1        0.0271
     61 H           8.8824   -0.2666    0.0000 H       1  UNL1        0.0271
     62 H           8.9079   -2.4755    0.0000 H       1  UNL1        0.0268
     63 H           9.3017   -1.7811    0.0000 H       1  UNL1        0.0268
     64 H           5.7398   -1.8325    0.0000 H       1  UNL1        0.0296
     65 H           5.3300   -2.5176    0.0000 H       1  UNL1        0.0296
     66 H           5.4251   -0.2507    0.0000 H       1  UNL1        0.0310
     67 H           5.8263   -0.9395    0.0000 H       1  UNL1        0.0310
     68 H           6.1502    1.7468    0.0000 H       1  UNL1        0.0357
     69 H           8.8791    0.5765    0.0000 H       1  UNL1        0.0274
     70 H           9.2836    1.2647    0.0000 H       1  UNL1        0.0274
     71 H           7.4046   -4.3586    0.0000 H       1  UNL1        0.0629
     72 H           8.8623   -0.7821    0.0000 H       1  UNL1        0.0235
     73 H           9.3624   -0.0619    0.0000 H       1  UNL1        0.0235
     74 H           8.6422    0.4382    0.0000 H       1  UNL1        0.0235
     75 H           9.2868    2.0942    0.0000 H       1  UNL1        0.0276
     76 H           8.8876    2.7855    0.0000 H       1  UNL1        0.0276
     77 H           5.9259   -4.1235    0.0000 H       1  UNL1        0.0619
     78 H           6.3400   -0.8552    0.0000 H       1  UNL1        0.0235
     79 H           5.4922   -1.0789    0.0000 H       1  UNL1        0.0235
     80 H           5.7158   -1.9267    0.0000 H       1  UNL1        0.0235
     81 H           5.4941    0.9519    0.0000 H       1  UNL1        0.0572
     82 H           8.6444   -0.1302    0.0000 H       1  UNL1        0.0238
     83 H           9.3607    0.3755    0.0000 H       1  UNL1        0.0238
     84 H           8.8550    1.0918    0.0000 H       1  UNL1        0.0238
     85 H           5.3095    2.8000    0.0000 H       1  UNL1        0.0276
     86 H           5.7246    2.1181    0.0000 H       1  UNL1        0.0276
     87 H           8.3869    3.6965    0.0000 H       1  UNL1        0.0276
     88 H           7.9877    4.3878    0.0000 H       1  UNL1        0.0276
     89 H           7.7303   -4.5822    0.0000 H       1  UNL1        0.0563
     90 H           8.4236   -4.9754    0.0000 H       1  UNL1        0.0563
     91 H           8.8094   -4.1157    0.0000 H       1  UNL1        0.0237
     92 H           9.4246   -3.4910    0.0000 H       1  UNL1        0.0237
     93 H           8.7998   -2.8758    0.0000 H       1  UNL1        0.0237
     94 H           7.2302    4.8213    0.0000 H       1  UNL1        0.0271
     95 H           6.4319    4.8151    0.0000 H       1  UNL1        0.0271
     96 H           4.5251   -3.6826    0.0000 H       1  UNL1        0.2099
     97 H           5.9202    4.9669    0.0000 H       1  UNL1        0.0235
     98 H           5.0699    5.1808    0.0000 H       1  UNL1        0.0235
     99 H           4.8560    4.3304    0.0000 H       1  UNL1        0.0235
    100 H           4.8920    4.3950    0.0000 H       1  UNL1        0.0235
    101 H           4.2816    3.7655    0.0000 H       1  UNL1        0.0235
    102 H           4.9111    3.1551    0.0000 H       1  UNL1        0.0235
    103 H           6.0010   -4.9296    0.0000 H       1  UNL1        0.0938
    104 H           9.6254   -4.8924    0.0000 H       1  UNL1        0.2094
    105 H           6.0010   -7.1696    0.0000 H       1  UNL1        0.0671
    106 H           9.4882    4.1199    0.0000 H       1  UNL1        0.1085
    107 H           4.5981   -7.3596    0.0000 H       1  UNL1        0.0648
    108 H           4.2690   -4.9296    0.0000 H       1  UNL1        0.0647
    109 H           4.2690   -7.1696    0.0000 H       1  UNL1        0.0647
    110 H          10.8933    3.9461    0.0000 H       1  UNL1        0.0683
    111 H           6.8671   -7.6696    0.0000 H       1  UNL1        0.2101
    112 H          11.7463    5.0761    0.0000 H       1  UNL1        0.0648
    113 H           3.8015   -4.5746    0.0000 H       1  UNL1        0.0584
    114 H           3.0044   -4.5746    0.0000 H       1  UNL1        0.0584
    115 H           9.7892    6.5535    0.0000 H       1  UNL1        0.0647
    116 H          11.1943    6.3797    0.0000 H       1  UNL1        0.0647
    117 H           4.5981   -8.3596    0.0000 H       1  UNL1        0.2100
    118 H           3.4030   -7.6696    0.0000 H       1  UNL1        0.2100
    119 H          10.9049    2.9462    0.0000 H       1  UNL1        0.2102
    120 H          10.9299    7.1491    0.0000 H       1  UNL1        0.0584
    121 H          10.5234    7.8347    0.0000 H       1  UNL1        0.0584
    122 H          12.6181    4.5861    0.0000 H       1  UNL1        0.2100
    123 H           2.0000   -5.2396    0.0000 H       1  UNL1        0.2095
    124 H          12.0544    6.8897    0.0000 H       1  UNL1        0.2100
    125 H           9.4392    8.3596    0.0000 H       1  UNL1        0.2095
@<TRIPOS>BOND
     1    30     1    1
     2    46     1    1
     3    33     2    1
     4     2    96    1
     5     3    40    1
     6     3   104    1
     7     4    43    1
     8    48     4    1
     9     5    43    2
    10     6    46    1
    11     6    50    1
    12    47     7    1
    13     7   111    1
    14     8    48    1
    15     8    55    1
    16    49     9    1
    17     9   117    1
    18    51    10    1
    19    10   118    1
    20    52    11    1
    21    11   119    1
    22    53    12    1
    23    12   122    1
    24    13    54    1
    25    13   123    1
    26    56    14    1
    27    14   124    1
    28    15    57    1
    29    15   125    1
    30    16    18    1
    31    16    19    1
    32    16    21    1
    33    16    31    1
    34    17    18    1
    35    17    20    1
    36    17    25    1
    37    17    34    1
    38    18    26    1
    39    18    58    1
    40    19    24    1
    41    19    28    1
    42    19    36    1
    43    20    22    1
    44    20    23    1
    45    20    59    1
    46    21    23    1
    47    21    60    1
    48    21    61    1
    49    22    30    1
    50    22    40    1
    51    22    41    1
    52    23    62    1
    53    23    63    1
    54    24    27    1
    55    24    35    2
    56    25    33    1
    57    25    64    1
    58    25    65    1
    59    26    35    1
    60    26    66    1
    61    26    67    1
    62    27    29    1
    63    27    37    1
    64    27    68    1
    65    28    32    1
    66    28    69    1
    67    28    70    1
    68    29    32    1
    69    29    38    1
    70    29    43    1
    71    30    33    1
    72    30    71    1
    73    31    72    1
    74    31    73    1
    75    31    74    1
    76    32    75    1
    77    32    76    1
    78    33    77    1
    79    34    78    1
    80    34    79    1
    81    34    80    1
    82    35    81    1
    83    36    82    1
    84    36    83    1
    85    36    84    1
    86    37    39    1
    87    37    85    1
    88    37    86    1
    89    38    42    1
    90    38    87    1
    91    38    88    1
    92    39    42    1
    93    39    44    1
    94    39    45    1
    95    40    89    1
    96    40    90    1
    97    41    91    1
    98    41    92    1
    99    41    93    1
   100    42    94    1
   101    42    95    1
   102    44    97    1
   103    44    98    1
   104    44    99    1
   105    45   100    1
   106    45   101    1
   107    45   102    1
   108    46    47    1
   109    46   103    1
   110    47    49    1
   111    47   105    1
   112    48    52    1
   113    48   106    1
   114    49    51    1
   115    49   107    1
   116    50    51    1
   117    50    54    1
   118    50   108    1
   119    51   109    1
   120    52    53    1
   121    52   110    1
   122    53    56    1
   123    53   112    1
   124    54   113    1
   125    54   114    1
   126    55    56    1
   127    55    57    1
   128    55   115    1
   129    56   116    1
   130    57   120    1
   131    57   121    1
