@<TRIPOS>MOLECULE
IMPHY016032
 38 41 0 0 0
SMALL
GASTEIGER

@<TRIPOS>ATOM
      1 O           6.5008    0.4288    0.0000 O.3     1  UNL1       -0.2197
      2 O           6.2536    1.1897    0.0000 O.3     1  UNL1       -0.2228
      3 O           3.7556    0.8733    0.0000 O.3     1  UNL1       -0.4570
      4 O           6.9381   -1.8205    0.0000 O.3     1  UNL1       -0.3855
      5 O           2.0000    0.7585    0.0000 O.2     1  UNL1       -0.2453
      6 C           5.4378    0.5040    0.0000 C.3     1  UNL1        0.0704
      7 C           6.2468   -0.0838    0.0000 C.3     1  UNL1        0.1599
      8 C           5.7468    1.4550    0.0000 C.3     1  UNL1        0.1292
      9 C           4.4941    0.2367    0.0000 C.3     1  UNL1        0.1193
     10 C           6.2842   -1.0639    0.0000 C.3     1  UNL1        0.0992
     11 C           4.1123   -0.6667    0.0000 C.3     1  UNL1        0.0280
     12 C           5.5430   -1.7062    0.0000 C.3     1  UNL1       -0.0204
     13 C           7.0558    0.5040    0.0000 C.2     1  UNL1       -0.0474
     14 C           4.5782   -1.5298    0.0000 C.3     1  UNL1       -0.0399
     15 C           6.7468    1.4550    0.0000 C.2     1  UNL1       -0.0504
     16 C           5.4378    2.4061    0.0000 C.3     1  UNL1       -0.0286
     17 C           7.2834   -1.0244    0.0000 C.3     1  UNL1       -0.0329
     18 C           3.1411   -0.5807    0.0000 C.2     1  UNL1        0.0361
     19 C           2.9211    0.3691    0.0000 C.2     1  UNL1        0.3353
     20 C           2.4849   -1.3353    0.0000 C.2     1  UNL1       -0.0883
     21 H           6.0274    0.6956    0.0000 H       1  UNL1        0.0402
     22 H           4.6280    0.8421    0.0000 H       1  UNL1        0.0745
     23 H           3.7714   -1.1846    0.0000 H       1  UNL1        0.0387
     24 H           5.2980   -2.2757    0.0000 H       1  UNL1        0.0294
     25 H           6.0434   -2.0722    0.0000 H       1  UNL1        0.0294
     26 H           7.6454    0.3124    0.0000 H       1  UNL1        0.0600
     27 H           3.9806   -1.6950    0.0000 H       1  UNL1        0.0273
     28 H           4.6057   -2.1492    0.0000 H       1  UNL1        0.0273
     29 H           7.1112    1.9566    0.0000 H       1  UNL1        0.0599
     30 H           6.0274    2.5977    0.0000 H       1  UNL1        0.0262
     31 H           5.2462    2.9958    0.0000 H       1  UNL1        0.0262
     32 H           4.8481    2.2145    0.0000 H       1  UNL1        0.0262
     33 H           7.3079   -1.6439    0.0000 H       1  UNL1        0.0258
     34 H           7.9029   -0.9999    0.0000 H       1  UNL1        0.0258
     35 H           7.2589   -0.4049    0.0000 H       1  UNL1        0.0258
     36 H           6.7345   -2.4061    0.0000 H       1  UNL1        0.2103
     37 H           1.8763   -1.2169    0.0000 H       1  UNL1        0.0540
     38 H           2.6866   -1.9216    0.0000 H       1  UNL1        0.0540
@<TRIPOS>BOND
     1     1     2    1
     2     1     7    1
     3     2     8    1
     4     3     9    1
     5     3    19    1
     6     4    10    1
     7     4    36    1
     8     5    19    2
     9     6     7    1
    10     6     8    1
    11     6     9    1
    12     6    21    1
    13     7    10    1
    14     7    13    1
    15     8    15    1
    16     8    16    1
    17     9    11    1
    18     9    22    1
    19    10    12    1
    20    10    17    1
    21    11    14    1
    22    11    18    1
    23    11    23    1
    24    12    14    1
    25    12    24    1
    26    12    25    1
    27    13    15    2
    28    13    26    1
    29    14    27    1
    30    14    28    1
    31    15    29    1
    32    16    30    1
    33    16    31    1
    34    16    32    1
    35    17    33    1
    36    17    34    1
    37    17    35    1
    38    18    19    1
    39    18    20    2
    40    20    37    1
    41    20    38    1
