@<TRIPOS>MOLECULE
IMPHY015382
 15 15 0 0 0
SMALL
GASTEIGER

@<TRIPOS>ATOM
      1 S           3.9680   -0.8242    0.0000 S.2     1  UNL1       -0.0758
      2 N           4.4680    0.7146    0.0000 N.ar    1  UNL1       -0.2520
      3 C           3.4680    0.7146    0.0000 C.ar    1  UNL1        0.0525
      4 C           3.1590   -0.2365    0.0000 C.ar    1  UNL1        0.0340
      5 C           2.8802    1.5236    0.0000 C.3     1  UNL1       -0.0213
      6 C           2.2079   -0.5455    0.0000 C.2     1  UNL1       -0.0533
      7 C           4.7770   -0.2365    0.0000 C.ar    1  UNL1        0.0655
      8 C           2.0000   -1.5236    0.0000 C.2     1  UNL1       -0.0976
      9 H           3.3818    1.8880    0.0000 H       1  UNL1        0.0293
     10 H           2.5158    2.0252    0.0000 H       1  UNL1        0.0293
     11 H           2.3786    1.1592    0.0000 H       1  UNL1        0.0293
     12 H           1.7472   -0.1306    0.0000 H       1  UNL1        0.0623
     13 H           5.3667   -0.4280    0.0000 H       1  UNL1        0.0907
     14 H           1.4103   -1.7152    0.0000 H       1  UNL1        0.0535
     15 H           2.4608   -1.9385    0.0000 H       1  UNL1        0.0535
@<TRIPOS>BOND
     1     1     4   ar
     2     1     7   ar
     3     2     3   ar
     4     2     7   ar
     5     3     4   ar
     6     3     5    1
     7     4     6    1
     8     5     9    1
     9     5    10    1
    10     5    11    1
    11     6     8    2
    12     6    12    1
    13     7    13    1
    14     8    14    1
    15     8    15    1
