@<TRIPOS>MOLECULE
IMPHY015980
 38 38 0 0 0
SMALL
GASTEIGER

@<TRIPOS>ATOM
      1 O           4.2690   -0.5000    0.0000 O.3     1  UNL1       -0.3312
      2 O           4.2690   -3.5000    0.0000 O.3     1  UNL1       -0.3864
      3 O           2.5369   -2.5000    0.0000 O.3     1  UNL1       -0.3865
      4 O           6.0010   -0.5000    0.0000 O.3     1  UNL1       -0.4289
      5 O           6.0010   -2.5000    0.0000 O.3     1  UNL1       -0.3829
      6 O           2.5369    0.5000    0.0000 O.3     1  UNL1       -0.3924
      7 O           5.1350    1.0000    0.0000 O.2     1  UNL1       -0.2452
      8 O           6.0010    2.5000    0.0000 O.3     1  UNL1       -0.3847
      9 O           7.7331    3.5000    0.0000 O.3     1  UNL1       -0.3921
     10 C           3.4030   -2.0000    0.0000 C.3     1  UNL1        0.1120
     11 C           4.2690   -2.5000    0.0000 C.3     1  UNL1        0.1152
     12 C           3.4030   -1.0000    0.0000 C.3     1  UNL1        0.1140
     13 C           5.1350   -2.0000    0.0000 C.3     1  UNL1        0.1455
     14 C           5.1350   -1.0000    0.0000 C.3     1  UNL1        0.2341
     15 C           2.5369   -0.5000    0.0000 C.3     1  UNL1        0.0731
     16 C           6.0010    0.5000    0.0000 C.2     1  UNL1        0.3394
     17 C           6.8671    1.0000    0.0000 C.2     1  UNL1        0.0600
     18 C           6.8671    2.0000    0.0000 C.3     1  UNL1        0.1092
     19 C           7.7331    2.5000    0.0000 C.3     1  UNL1        0.0745
     20 C           7.7331    0.5000    0.0000 C.2     1  UNL1       -0.0861
     21 H           3.4030   -2.6200    0.0000 H       1  UNL1        0.0647
     22 H           3.7320   -2.8100    0.0000 H       1  UNL1        0.0648
     23 H           3.4030   -0.3800    0.0000 H       1  UNL1        0.0647
     24 H           5.1350   -2.6200    0.0000 H       1  UNL1        0.0683
     25 H           5.1350   -0.3800    0.0000 H       1  UNL1        0.1085
     26 H           1.9264   -0.3923    0.0000 H       1  UNL1        0.0584
     27 H           2.3249   -1.0826    0.0000 H       1  UNL1        0.0584
     28 H           3.7320   -3.8100    0.0000 H       1  UNL1        0.2100
     29 H           2.0000   -2.1900    0.0000 H       1  UNL1        0.2100
     30 H           6.5380   -2.1900    0.0000 H       1  UNL1        0.2102
     31 H           2.0000    0.8100    0.0000 H       1  UNL1        0.2095
     32 H           6.3301    1.6900    0.0000 H       1  UNL1        0.0669
     33 H           7.9451    1.9174    0.0000 H       1  UNL1        0.0586
     34 H           8.3437    2.6077    0.0000 H       1  UNL1        0.0586
     35 H           7.7331   -0.1200    0.0000 H       1  UNL1        0.0540
     36 H           8.2700    0.8100    0.0000 H       1  UNL1        0.0540
     37 H           6.0010    3.1200    0.0000 H       1  UNL1        0.2103
     38 H           8.2700    3.8100    0.0000 H       1  UNL1        0.2095
@<TRIPOS>BOND
     1     1    12    1
     2     1    14    1
     3    11     2    1
     4     2    28    1
     5    10     3    1
     6     3    29    1
     7    14     4    1
     8     4    16    1
     9    13     5    1
    10     5    30    1
    11     6    15    1
    12     6    31    1
    13     7    16    2
    14     8    18    1
    15     8    37    1
    16     9    19    1
    17     9    38    1
    18    10    11    1
    19    10    12    1
    20    10    21    1
    21    11    13    1
    22    11    22    1
    23    12    15    1
    24    12    23    1
    25    13    14    1
    26    13    24    1
    27    14    25    1
    28    15    26    1
    29    15    27    1
    30    16    17    1
    31    17    18    1
    32    17    20    2
    33    18    19    1
    34    18    32    1
    35    19    33    1
    36    19    34    1
    37    20    35    1
    38    20    36    1
