@<TRIPOS>MOLECULE
IMPHY017833
 39 40 0 0 0
SMALL
GASTEIGER

@<TRIPOS>ATOM
      1 O           3.6180   -0.5355    0.0000 O.3     1  UNL1       -0.3585
      2 O           3.0878    1.8123    0.0000 O.2     1  UNL1       -0.4833
      3 C           2.8090    0.0523    0.0000 C.3     1  UNL1        0.1238
      4 C           2.0000   -0.5355    0.0000 C.3     1  UNL1       -0.0142
      5 C           2.3090   -1.4866    0.0000 C.3     1  UNL1       -0.0197
      6 C           3.3090   -1.4866    0.0000 C.3     1  UNL1        0.0806
      7 C           3.3968    0.8613    0.0000 C.2     1  UNL1        0.1266
      8 C           3.8968    2.4001    0.0000 C.3     1  UNL1        0.1289
      9 C           2.2212    0.8613    0.0000 C.3     1  UNL1       -0.0287
     10 C           4.7058    1.8123    0.0000 C.3     1  UNL1        0.0122
     11 C           4.3968    0.8613    0.0000 C.2     1  UNL1       -0.0395
     12 C           3.8968   -2.2956    0.0000 C.2     1  UNL1       -0.0513
     13 C           3.3090    3.2091    0.0000 C.3     1  UNL1       -0.0209
     14 C           4.4846    3.2091    0.0000 C.2     1  UNL1       -0.0481
     15 C           3.4901   -3.2091    0.0000 C.3     1  UNL1       -0.0416
     16 C           4.8913   -2.1911    0.0000 C.2     1  UNL1       -0.0973
     17 C           5.4791    3.1046    0.0000 C.2     1  UNL1       -0.0989
     18 H           1.6900    0.0014    0.0000 H       1  UNL1        0.0298
     19 H           1.4336   -0.7877    0.0000 H       1  UNL1        0.0298
     20 H           1.7026   -1.6155    0.0000 H       1  UNL1        0.0294
     21 H           2.3738   -2.1032    0.0000 H       1  UNL1        0.0294
     22 H           3.9214   -1.3896    0.0000 H       1  UNL1        0.0643
     23 H           2.7228    1.2257    0.0000 H       1  UNL1        0.0262
     24 H           1.8568    1.3629    0.0000 H       1  UNL1        0.0262
     25 H           1.7196    0.4969    0.0000 H       1  UNL1        0.0262
     26 H           5.2722    1.5602    0.0000 H       1  UNL1        0.0350
     27 H           5.0158    2.3493    0.0000 H       1  UNL1        0.0350
     28 H           4.7612    0.3597    0.0000 H       1  UNL1        0.0607
     29 H           3.8106    3.5736    0.0000 H       1  UNL1        0.0271
     30 H           2.9446    3.7107    0.0000 H       1  UNL1        0.0271
     31 H           2.8074    2.8447    0.0000 H       1  UNL1        0.0271
     32 H           4.2324    3.7755    0.0000 H       1  UNL1        0.0605
     33 H           2.9237   -2.9570    0.0000 H       1  UNL1        0.0275
     34 H           3.2379   -3.7755    0.0000 H       1  UNL1        0.0275
     35 H           4.0565   -3.4613    0.0000 H       1  UNL1        0.0275
     36 H           5.2558   -2.6927    0.0000 H       1  UNL1        0.0535
     37 H           5.1435   -1.6247    0.0000 H       1  UNL1        0.0535
     38 H           5.7313    2.5382    0.0000 H       1  UNL1        0.0533
     39 H           5.8435    3.6062    0.0000 H       1  UNL1        0.0533
@<TRIPOS>BOND
     1     1     3    1
     2     1     6    1
     3     2     7    1
     4     2     8    1
     5     3     4    1
     6     3     7    1
     7     3     9    1
     8     4     5    1
     9     4    18    1
    10     4    19    1
    11     5     6    1
    12     5    20    1
    13     5    21    1
    14     6    12    1
    15     6    22    1
    16     7    11    2
    17     8    10    1
    18     8    13    1
    19     8    14    1
    20     9    23    1
    21     9    24    1
    22     9    25    1
    23    10    11    1
    24    10    26    1
    25    10    27    1
    26    11    28    1
    27    12    15    1
    28    12    16    2
    29    13    29    1
    30    13    30    1
    31    13    31    1
    32    14    17    2
    33    14    32    1
    34    15    33    1
    35    15    34    1
    36    15    35    1
    37    16    36    1
    38    16    37    1
    39    17    38    1
    40    17    39    1
