@<TRIPOS>MOLECULE
IMPHY006829
 74 76 0 0 0
SMALL
GASTEIGER

@<TRIPOS>ATOM
      1 O           6.8671   -3.4208    0.0000 O.3     1  UNL1       -0.3093
      2 O           5.1350   -3.4208    0.0000 O.3     1  UNL1       -0.3404
      3 O           6.0010   -1.9208    0.0000 O.2     1  UNL1       -0.4699
      4 O           7.7490    1.1484    0.0000 O.3     1  UNL1       -0.4213
      5 O           6.8671   -5.4209    0.0000 O.3     1  UNL1       -0.3841
      6 O           5.1350   -6.4209    0.0000 O.3     1  UNL1       -0.3864
      7 O           3.4030   -5.4209    0.0000 O.3     1  UNL1       -0.3865
      8 O           9.5191    1.1242    0.0000 O.3     1  UNL1       -0.4214
      9 O           2.5369   -3.9208    0.0000 O.3     1  UNL1       -0.3924
     10 O           5.9793    1.1106    0.0000 O.2     1  UNL1       -0.2451
     11 O           8.6588    2.6276    0.0000 O.2     1  UNL1       -0.2452
     12 O          13.0024    6.1109    0.0000 O.3     1  UNL1       -0.3848
     13 C           7.7331   -0.9209    0.0000 C.3     1  UNL1        0.0125
     14 C           7.7331   -1.9208    0.0000 C.3     1  UNL1        0.0469
     15 C           6.8671   -2.4208    0.0000 C.3     1  UNL1        0.2102
     16 C           8.6431   -0.4140    0.0000 C.3     1  UNL1        0.0297
     17 C           6.0010   -3.9208    0.0000 C.3     1  UNL1        0.1918
     18 C           6.0010   -4.9209    0.0000 C.3     1  UNL1        0.1342
     19 C           5.1350   -5.4209    0.0000 C.3     1  UNL1        0.1141
     20 C           4.2690   -4.9209    0.0000 C.3     1  UNL1        0.1119
     21 C           6.8671   -0.4209    0.0000 C.2     1  UNL1        0.0749
     22 C           4.2690   -3.9208    0.0000 C.3     1  UNL1        0.1130
     23 C           8.6511    0.6276    0.0000 C.3     1  UNL1        0.2504
     24 C           8.5991   -2.4208    0.0000 C.2     1  UNL1       -0.0816
     25 C           6.0010   -0.9209    0.0000 C.2     1  UNL1        0.0981
     26 C           6.8510    0.6207    0.0000 C.2     1  UNL1        0.3413
     27 C           3.4030   -3.4208    0.0000 C.3     1  UNL1        0.0730
     28 C           9.4651   -1.9208    0.0000 C.2     1  UNL1       -0.1022
     29 C           9.5229    2.1242    0.0000 C.2     1  UNL1        0.3375
     30 C          10.3909    2.6209    0.0000 C.2     1  UNL1        0.0297
     31 C          11.2627    4.1175    0.0000 C.3     1  UNL1       -0.0311
     32 C          10.3947    3.6209    0.0000 C.2     1  UNL1       -0.0742
     33 C          11.2665    5.1175    0.0000 C.3     1  UNL1       -0.0172
     34 C          12.1345    5.6142    0.0000 C.3     1  UNL1        0.0814
     35 C          11.2550    2.1176    0.0000 C.3     1  UNL1       -0.0332
     36 C          12.6311    4.7462    0.0000 C.3     1  UNL1       -0.0324
     37 C          11.6378    6.4822    0.0000 C.2     1  UNL1       -0.0602
     38 C          10.6378    6.4860    0.0000 C.2     1  UNL1       -0.1000
     39 H           8.2676   -1.2350    0.0000 H       1  UNL1        0.0362
     40 H           7.7331   -2.5408    0.0000 H       1  UNL1        0.0410
     41 H           6.3301   -2.7309    0.0000 H       1  UNL1        0.1062
     42 H           8.8476   -0.9993    0.0000 H       1  UNL1        0.0343
     43 H           9.2547   -0.3126    0.0000 H       1  UNL1        0.0343
     44 H           6.0010   -3.3008    0.0000 H       1  UNL1        0.0939
     45 H           6.0010   -5.5408    0.0000 H       1  UNL1        0.0671
     46 H           4.5981   -5.7308    0.0000 H       1  UNL1        0.0648
     47 H           3.7320   -4.6109    0.0000 H       1  UNL1        0.0647
     48 H           4.2690   -3.3008    0.0000 H       1  UNL1        0.0647
     49 H           8.6523    1.2476    0.0000 H       1  UNL1        0.1207
     50 H           8.5991   -3.0408    0.0000 H       1  UNL1        0.0571
     51 H           5.4641   -0.6109    0.0000 H       1  UNL1        0.1029
     52 H           3.8015   -2.9459    0.0000 H       1  UNL1        0.0584
     53 H           3.0044   -2.9459    0.0000 H       1  UNL1        0.0584
     54 H           6.8671   -6.0408    0.0000 H       1  UNL1        0.2101
     55 H           4.5981   -6.7308    0.0000 H       1  UNL1        0.2100
     56 H           3.4030   -6.0408    0.0000 H       1  UNL1        0.2100
     57 H          10.0021   -2.2309    0.0000 H       1  UNL1        0.0532
     58 H           9.4651   -1.3008    0.0000 H       1  UNL1        0.0532
     59 H           2.0000   -3.6108    0.0000 H       1  UNL1        0.2095
     60 H          11.4725    3.5341    0.0000 H       1  UNL1        0.0309
     61 H          11.8737    4.2229    0.0000 H       1  UNL1        0.0309
     62 H          11.0567    5.7010    0.0000 H       1  UNL1        0.0299
     63 H          10.6555    5.0122    0.0000 H       1  UNL1        0.0299
     64 H           9.8590    3.9330    0.0000 H       1  UNL1        0.0577
     65 H          10.9429    1.5818    0.0000 H       1  UNL1        0.0280
     66 H          11.7907    1.8055    0.0000 H       1  UNL1        0.0280
     67 H          11.5670    2.6533    0.0000 H       1  UNL1        0.0280
     68 H          12.0930    4.4383    0.0000 H       1  UNL1        0.0260
     69 H          12.9391    4.2081    0.0000 H       1  UNL1        0.0260
     70 H          13.1693    5.0542    0.0000 H       1  UNL1        0.0260
     71 H          11.9499    7.0179    0.0000 H       1  UNL1        0.0594
     72 H          13.0048    6.7308    0.0000 H       1  UNL1        0.2106
     73 H          10.3299    7.0241    0.0000 H       1  UNL1        0.0533
     74 H          10.3257    5.9503    0.0000 H       1  UNL1        0.0533
@<TRIPOS>BOND
     1     1    15    1
     2    17     1    1
     3     2    17    1
     4     2    22    1
     5     3    15    1
     6     3    25    1
     7     4    23    1
     8     4    26    1
     9    18     5    1
    10     5    54    1
    11    19     6    1
    12     6    55    1
    13    20     7    1
    14     7    56    1
    15     8    23    1
    16     8    29    1
    17     9    27    1
    18     9    59    1
    19    10    26    2
    20    11    29    2
    21    12    34    1
    22    12    72    1
    23    13    14    1
    24    13    16    1
    25    13    21    1
    26    13    39    1
    27    14    15    1
    28    14    24    1
    29    14    40    1
    30    15    41    1
    31    16    23    1
    32    16    42    1
    33    16    43    1
    34    17    18    1
    35    17    44    1
    36    18    19    1
    37    18    45    1
    38    19    20    1
    39    19    46    1
    40    20    22    1
    41    20    47    1
    42    21    25    2
    43    21    26    1
    44    22    27    1
    45    22    48    1
    46    23    49    1
    47    24    28    2
    48    24    50    1
    49    25    51    1
    50    27    52    1
    51    27    53    1
    52    28    57    1
    53    28    58    1
    54    29    30    1
    55    30    32    2
    56    30    35    1
    57    31    32    1
    58    31    33    1
    59    31    60    1
    60    31    61    1
    61    32    64    1
    62    33    34    1
    63    33    62    1
    64    33    63    1
    65    34    36    1
    66    34    37    1
    67    35    65    1
    68    35    66    1
    69    35    67    1
    70    36    68    1
    71    36    69    1
    72    36    70    1
    73    37    38    2
    74    37    71    1
    75    38    73    1
    76    38    74    1
