@<TRIPOS>MOLECULE
IMPHY013217
 53 57 0 0 0
SMALL
GASTEIGER

@<TRIPOS>ATOM
      1 O          11.8342    0.3129    0.0000 O.3     1  UNL1       -0.4788
      2 O           3.9080   -3.2628    0.0000 O.3     1  UNL1       -0.4816
      3 O           8.2982    0.3408    0.0000 O.2     1  UNL1       -0.4613
      4 O          11.8489    3.0866    0.0000 O.3     1  UNL1       -0.3907
      5 O          10.0582   -2.6939    0.0000 O.3     1  UNL1       -0.5058
      6 O           8.3098   -2.7285    0.0000 O.2     1  UNL1       -0.2863
      7 C          11.8423    1.3546    0.0000 C.3     1  UNL1        0.1491
      8 C          10.0582    0.3061    0.0000 C.ar    1  UNL1        0.0597
      9 C           3.0000   -2.7525    0.0000 C.3     1  UNL1        0.1235
     10 C          10.9242   -0.1939    0.0000 C.ar    1  UNL1        0.1360
     11 C          10.9402    1.8754    0.0000 C.2     1  UNL1       -0.0383
     12 C           9.1922   -0.1939    0.0000 C.ar    1  UNL1        0.1525
     13 C           9.1922   -1.1939    0.0000 C.ar    1  UNL1        0.1066
     14 C          12.3456    2.2186    0.0000 C.3     1  UNL1        0.0873
     15 C          10.0421    1.3476    0.0000 C.2     1  UNL1       -0.0477
     16 C          12.8422    1.3507    0.0000 C.3     1  UNL1       -0.0190
     17 C           4.7960   -1.7247    0.0000 C.ar    1  UNL1        0.0171
     18 C           7.3922   -1.2147    0.0000 C.ar    1  UNL1        0.0644
     19 C           4.7999   -2.7247    0.0000 C.ar    1  UNL1        0.1289
     20 C           6.5281   -1.7180    0.0000 C.ar    1  UNL1       -0.0105
     21 C          10.9242   -1.1939    0.0000 C.ar    1  UNL1        0.0231
     22 C           2.9960   -1.7108    0.0000 C.2     1  UNL1       -0.0409
     23 C          10.0582   -1.6939    0.0000 C.ar    1  UNL1        0.1347
     24 C           8.2982   -1.7286    0.0000 C.ar    1  UNL1        0.2037
     25 C           5.6601   -1.2214    0.0000 C.ar    1  UNL1       -0.0432
     26 C           3.9000   -1.1935    0.0000 C.2     1  UNL1       -0.0513
     27 C           2.0000   -2.7602    0.0000 C.3     1  UNL1       -0.0215
     28 C           2.5067   -3.6223    0.0000 C.3     1  UNL1       -0.0215
     29 C           5.6678   -3.2214    0.0000 C.ar    1  UNL1       -0.0187
     30 C           6.5319   -2.7180    0.0000 C.ar    1  UNL1       -0.0503
     31 C           7.3922   -0.1731    0.0000 C.ar    1  UNL1        0.1039
     32 H          10.9378    2.4954    0.0000 H       1  UNL1        0.0612
     33 H          12.8190    1.8183    0.0000 H       1  UNL1        0.0600
     34 H          12.8221    2.6153    0.0000 H       1  UNL1        0.0600
     35 H           9.5016    1.6514    0.0000 H       1  UNL1        0.0624
     36 H          12.8399    0.7307    0.0000 H       1  UNL1        0.0272
     37 H          13.4622    1.3483    0.0000 H       1  UNL1        0.0272
     38 H          12.8446    1.9707    0.0000 H       1  UNL1        0.0272
     39 H          11.4612   -1.5039    0.0000 H       1  UNL1        0.0691
     40 H           2.4590   -1.4008    0.0000 H       1  UNL1        0.0611
     41 H           5.6577   -0.6014    0.0000 H       1  UNL1        0.0631
     42 H           3.9048   -0.5735    0.0000 H       1  UNL1        0.0623
     43 H           1.9952   -2.1402    0.0000 H       1  UNL1        0.0271
     44 H           1.3800   -2.7650    0.0000 H       1  UNL1        0.0271
     45 H           2.0048   -3.3802    0.0000 H       1  UNL1        0.0271
     46 H           1.9674   -3.3165    0.0000 H       1  UNL1        0.0271
     47 H           2.2008   -4.1616    0.0000 H       1  UNL1        0.0271
     48 H           3.0460   -3.9282    0.0000 H       1  UNL1        0.0271
     49 H           5.6702   -3.8414    0.0000 H       1  UNL1        0.0654
     50 H           7.0700   -3.0260    0.0000 H       1  UNL1        0.0625
     51 H           6.8564    0.1390    0.0000 H       1  UNL1        0.1037
     52 H          12.1610    3.6223    0.0000 H       1  UNL1        0.2096
     53 H          10.5951   -3.0039    0.0000 H       1  UNL1        0.2922
@<TRIPOS>BOND
     1     1     7    1
     2     1    10    1
     3     2     9    1
     4     2    19    1
     5     3    12   ar
     6     3    31   ar
     7     4    14    1
     8     4    52    1
     9     5    23    1
    10     5    53    1
    11     6    24    2
    12     7    11    1
    13     7    14    1
    14     7    16    1
    15     8    10   ar
    16     8    12   ar
    17     8    15    1
    18     9    22    1
    19     9    27    1
    20     9    28    1
    21    10    21   ar
    22    11    15    2
    23    11    32    1
    24    12    13   ar
    25    13    23   ar
    26    13    24   ar
    27    14    33    1
    28    14    34    1
    29    15    35    1
    30    16    36    1
    31    16    37    1
    32    16    38    1
    33    17    19   ar
    34    17    25   ar
    35    17    26    1
    36    18    20    1
    37    18    24   ar
    38    18    31   ar
    39    19    29   ar
    40    20    25   ar
    41    20    30   ar
    42    21    23   ar
    43    21    39    1
    44    22    26    2
    45    22    40    1
    46    25    41    1
    47    26    42    1
    48    27    43    1
    49    27    44    1
    50    27    45    1
    51    28    46    1
    52    28    47    1
    53    28    48    1
    54    29    30   ar
    55    29    49    1
    56    30    50    1
    57    31    51    1
