@<TRIPOS>MOLECULE
IMPHY007602
 43 44 0 0 0
SMALL
GASTEIGER

@<TRIPOS>ATOM
      1 C           5.4641   -0.0000    0.0000 C.3     1  UNL1       -0.0264
      2 C           5.4641    1.0000    0.0000 C.3     1  UNL1       -0.0354
      3 C           6.3580   -0.5347    0.0000 C.3     1  UNL1       -0.0382
      4 C           4.5981   -0.5000    0.0000 C.3     1  UNL1       -0.0440
      5 C           3.7320   -0.0000    0.0000 C.3     1  UNL1       -0.0382
      6 C           4.5981    1.5000    0.0000 C.3     1  UNL1       -0.0494
      7 C           6.3580    1.5346    0.0000 C.3     1  UNL1       -0.0497
      8 C           3.7320    1.0000    0.0000 C.3     1  UNL1       -0.0497
      9 C           7.2641   -0.0208    0.0000 C.3     1  UNL1       -0.0499
     10 C           7.2641    1.0208    0.0000 C.3     1  UNL1       -0.0525
     11 C           5.4641   -1.0000    0.0000 C.3     1  UNL1       -0.0591
     12 C           2.8660   -0.5000    0.0000 C.3     1  UNL1       -0.0439
     13 C           6.3465   -1.5346    0.0000 C.3     1  UNL1       -0.0619
     14 C           2.0000   -0.0000    0.0000 C.3     1  UNL1       -0.0624
     15 C           2.8660   -1.5000    0.0000 C.3     1  UNL1       -0.0624
     16 H           5.4576    1.8499    0.0000 H       1  UNL1        0.0306
     17 H           6.8920   -0.8499    0.0000 H       1  UNL1        0.0303
     18 H           4.1996   -0.9750    0.0000 H       1  UNL1        0.0273
     19 H           4.9966   -0.9750    0.0000 H       1  UNL1        0.0273
     20 H           3.1951    0.3100    0.0000 H       1  UNL1        0.0303
     21 H           4.9966    1.9749    0.0000 H       1  UNL1        0.0268
     22 H           4.1996    1.9749    0.0000 H       1  UNL1        0.0268
     23 H           6.7517    2.0136    0.0000 H       1  UNL1        0.0268
     24 H           5.9534    2.0044    0.0000 H       1  UNL1        0.0268
     25 H           3.5200    1.5826    0.0000 H       1  UNL1        0.0268
     26 H           3.1215    0.8923    0.0000 H       1  UNL1        0.0268
     27 H           7.4732   -0.6045    0.0000 H       1  UNL1        0.0268
     28 H           7.8750    0.0852    0.0000 H       1  UNL1        0.0268
     29 H           7.8750    0.9147    0.0000 H       1  UNL1        0.0265
     30 H           7.4732    1.6045    0.0000 H       1  UNL1        0.0265
     31 H           4.8441   -1.0000    0.0000 H       1  UNL1        0.0235
     32 H           5.4641   -1.6200    0.0000 H       1  UNL1        0.0235
     33 H           6.0841   -1.0000    0.0000 H       1  UNL1        0.0235
     34 H           3.4030   -0.8100    0.0000 H       1  UNL1        0.0298
     35 H           5.7265   -1.5275    0.0000 H       1  UNL1        0.0233
     36 H           6.3393   -2.1546    0.0000 H       1  UNL1        0.0233
     37 H           6.9664   -1.5418    0.0000 H       1  UNL1        0.0233
     38 H           2.3100    0.5369    0.0000 H       1  UNL1        0.0232
     39 H           1.4631    0.3100    0.0000 H       1  UNL1        0.0232
     40 H           1.6900   -0.5370    0.0000 H       1  UNL1        0.0232
     41 H           2.2460   -1.5000    0.0000 H       1  UNL1        0.0232
     42 H           2.8660   -2.1200    0.0000 H       1  UNL1        0.0232
     43 H           3.4860   -1.5000    0.0000 H       1  UNL1        0.0232
@<TRIPOS>BOND
     1     1     2    1
     2     1     3    1
     3     1     4    1
     4     1    11    1
     5     2     6    1
     6     2     7    1
     7     2    16    1
     8     3     9    1
     9     3    13    1
    10     3    17    1
    11     4     5    1
    12     4    18    1
    13     4    19    1
    14     5     8    1
    15     5    12    1
    16     5    20    1
    17     6     8    1
    18     6    21    1
    19     6    22    1
    20     7    10    1
    21     7    23    1
    22     7    24    1
    23     8    25    1
    24     8    26    1
    25     9    10    1
    26     9    27    1
    27     9    28    1
    28    10    29    1
    29    10    30    1
    30    11    31    1
    31    11    32    1
    32    11    33    1
    33    12    14    1
    34    12    15    1
    35    12    34    1
    36    13    35    1
    37    13    36    1
    38    13    37    1
    39    14    38    1
    40    14    39    1
    41    14    40    1
    42    15    41    1
    43    15    42    1
    44    15    43    1
