@<TRIPOS>MOLECULE
IMPHY009863
 20 19 0 0 0
SMALL
GASTEIGER

@<TRIPOS>ATOM
      1 O           5.4641   -0.2500    0.0000 O.3     1  UNL1       -0.4677
      2 O           4.5981    1.2500    0.0000 O.2     1  UNL1       -0.2506
      3 C           3.7320   -0.2500    0.0000 C.3     1  UNL1        0.0534
      4 C           2.8660    0.2500    0.0000 C.3     1  UNL1       -0.0432
      5 C           3.7320   -1.2500    0.0000 C.3     1  UNL1       -0.0523
      6 C           2.0000   -0.2500    0.0000 C.3     1  UNL1       -0.0645
      7 C           4.5981    0.2500    0.0000 C.2     1  UNL1        0.3097
      8 C           6.3301    0.2500    0.0000 C.3     1  UNL1        0.0817
      9 H           4.2690   -0.5600    0.0000 H       1  UNL1        0.0410
     10 H           3.2646    0.7249    0.0000 H       1  UNL1        0.0270
     11 H           2.4675    0.7249    0.0000 H       1  UNL1        0.0270
     12 H           3.1120   -1.2500    0.0000 H       1  UNL1        0.0238
     13 H           3.7320   -1.8700    0.0000 H       1  UNL1        0.0238
     14 H           4.3520   -1.2500    0.0000 H       1  UNL1        0.0238
     15 H           1.6900    0.2869    0.0000 H       1  UNL1        0.0230
     16 H           1.4631   -0.5600    0.0000 H       1  UNL1        0.0230
     17 H           2.3100   -0.7869    0.0000 H       1  UNL1        0.0230
     18 H           6.6401   -0.2869    0.0000 H       1  UNL1        0.0661
     19 H           6.8671    0.5600    0.0000 H       1  UNL1        0.0661
     20 H           6.0201    0.7869    0.0000 H       1  UNL1        0.0661
@<TRIPOS>BOND
     1     1     7    1
     2     1     8    1
     3     2     7    2
     4     3     4    1
     5     3     5    1
     6     3     7    1
     7     3     9    1
     8     4     6    1
     9     4    10    1
    10     4    11    1
    11     5    12    1
    12     5    13    1
    13     5    14    1
    14     6    15    1
    15     6    16    1
    16     6    17    1
    17     8    18    1
    18     8    19    1
    19     8    20    1
