@<TRIPOS>MOLECULE
IMPHY016208
 40 42 0 0 0
SMALL
GASTEIGER

@<TRIPOS>ATOM
      1 O           2.6191   -1.0026    0.0000 O.3     1  UNL1       -0.3944
      2 C           4.0704   -0.0572    0.0000 C.3     1  UNL1        0.0040
      3 C           6.8871    0.0280    0.0000 C.3     1  UNL1       -0.0272
      4 C           5.7470    0.9851    0.0000 C.3     1  UNL1       -0.0257
      5 C           5.4882    0.0192    0.0000 C.3     1  UNL1       -0.0088
      6 C           6.4377   -0.8607    0.0000 C.3     1  UNL1       -0.0350
      7 C           4.5727   -0.9171    0.0000 C.3     1  UNL1       -0.0442
      8 C           5.5157   -1.2372    0.0000 C.3     1  UNL1       -0.0491
      9 C           5.6685    2.4459    0.0000 C.3     1  UNL1       -0.0308
     10 C           4.2672    1.6369    0.0000 C.2     1  UNL1       -0.0726
     11 C           3.0718   -0.1109    0.0000 C.3     1  UNL1        0.0507
     12 C           7.1158   -1.5957    0.0000 C.3     1  UNL1       -0.0436
     13 C           4.6740    2.5504    0.0000 C.2     1  UNL1       -0.0844
     14 C           3.2891    1.4290    0.0000 C.3     1  UNL1       -0.0435
     15 C           8.0913   -1.3760    0.0000 C.3     1  UNL1       -0.0624
     16 C           6.8183   -2.5504    0.0000 C.3     1  UNL1       -0.0624
     17 H           7.4945    0.1525    0.0000 H       1  UNL1        0.0312
     18 H           6.3017    1.2621    0.0000 H       1  UNL1        0.0313
     19 H           4.9260    0.2806    0.0000 H       1  UNL1        0.0355
     20 H           6.3030   -1.4659    0.0000 H       1  UNL1        0.0306
     21 H           3.9709   -1.0665    0.0000 H       1  UNL1        0.0272
     22 H           4.5467   -1.5365    0.0000 H       1  UNL1        0.0272
     23 H           5.1592   -1.7445    0.0000 H       1  UNL1        0.0268
     24 H           5.9022   -1.7220    0.0000 H       1  UNL1        0.0268
     25 H           6.2885    2.4464    0.0000 H       1  UNL1        0.0310
     26 H           5.7007    3.0650    0.0000 H       1  UNL1        0.0310
     27 H           3.1465    0.5046    0.0000 H       1  UNL1        0.0563
     28 H           2.4786    0.0695    0.0000 H       1  UNL1        0.0563
     29 H           7.5362   -2.0514    0.0000 H       1  UNL1        0.0298
     30 H           4.3640    3.0873    0.0000 H       1  UNL1        0.0572
     31 H           3.1602    2.0354    0.0000 H       1  UNL1        0.0274
     32 H           2.6826    1.3000    0.0000 H       1  UNL1        0.0274
     33 H           3.4180    0.8225    0.0000 H       1  UNL1        0.0274
     34 H           8.2276   -1.9808    0.0000 H       1  UNL1        0.0232
     35 H           8.6962   -1.2397    0.0000 H       1  UNL1        0.0232
     36 H           7.9551   -0.7711    0.0000 H       1  UNL1        0.0232
     37 H           6.2263   -2.3660    0.0000 H       1  UNL1        0.0232
     38 H           6.6338   -3.1423    0.0000 H       1  UNL1        0.0232
     39 H           7.4102   -2.7349    0.0000 H       1  UNL1        0.0232
     40 H           2.0000   -1.0359    0.0000 H       1  UNL1        0.2094
@<TRIPOS>BOND
     1     1    11    1
     2     1    40    1
     3     2     4    1
     4     2     5    1
     5     2     7    1
     6     2    11    1
     7     3     4    1
     8     3     5    1
     9     3     6    1
    10     3    17    1
    11     4     9    1
    12     4    18    1
    13     5    10    1
    14     5    19    1
    15     6     8    1
    16     6    12    1
    17     6    20    1
    18     7     8    1
    19     7    21    1
    20     7    22    1
    21     8    23    1
    22     8    24    1
    23     9    13    1
    24     9    25    1
    25     9    26    1
    26    10    13    2
    27    10    14    1
    28    11    27    1
    29    11    28    1
    30    12    15    1
    31    12    16    1
    32    12    29    1
    33    13    30    1
    34    14    31    1
    35    14    32    1
    36    14    33    1
    37    15    34    1
    38    15    35    1
    39    15    36    1
    40    16    37    1
    41    16    38    1
    42    16    39    1
