@<TRIPOS>MOLECULE
IMPHY002721
 98 99 0 0 0
SMALL
GASTEIGER

@<TRIPOS>ATOM
      1 O          14.4750    9.0412    0.0000 O.3     1  UNL1       -0.3917
      2 O          10.6754    7.0124    0.0000 O.2     1  UNL1       -0.2921
      3 C          12.0263    8.2048    0.0000 C.3     1  UNL1       -0.0201
      4 C          12.5263    7.3388    0.0000 C.3     1  UNL1        0.0377
      5 C          12.6954    8.9480    0.0000 C.3     1  UNL1       -0.0208
      6 C          13.5044    7.5467    0.0000 C.3     1  UNL1       -0.0139
      7 C          13.6090    8.5412    0.0000 C.3     1  UNL1        0.0567
      8 C          11.2831    8.8739    0.0000 C.3     1  UNL1       -0.0588
      9 C          11.0415    8.0312    0.0000 C.3     1  UNL1       -0.0588
     10 C          12.7342    6.3606    0.0000 C.3     1  UNL1       -0.0519
     11 C          11.6603    6.8388    0.0000 C.2     1  UNL1        0.1625
     12 C          11.6603    5.8388    0.0000 C.2     1  UNL1       -0.0184
     13 C          10.7942    5.3388    0.0000 C.2     1  UNL1       -0.0555
     14 C           3.0000   -8.1612    0.0000 C.3     1  UNL1       -0.0099
     15 C          10.7942    4.3388    0.0000 C.2     1  UNL1       -0.0503
     16 C           3.0000   -9.1612    0.0000 C.3     1  UNL1       -0.0436
     17 C           3.8660   -9.6612    0.0000 C.3     1  UNL1       -0.0486
     18 C           3.8660   -7.6612    0.0000 C.2     1  UNL1       -0.0427
     19 C           4.7320   -9.1612    0.0000 C.3     1  UNL1       -0.0314
     20 C           4.7320   -8.1612    0.0000 C.2     1  UNL1       -0.0689
     21 C           2.0000   -8.1612    0.0000 C.3     1  UNL1       -0.0558
     22 C           2.5000   -7.2952    0.0000 C.3     1  UNL1       -0.0558
     23 C          11.6603    3.8388    0.0000 C.3     1  UNL1       -0.0397
     24 C           9.9282    3.8388    0.0000 C.2     1  UNL1       -0.0588
     25 C           3.8660   -6.6612    0.0000 C.2     1  UNL1       -0.0579
     26 C           5.5981   -7.6612    0.0000 C.3     1  UNL1       -0.0432
     27 C           4.7320   -6.1612    0.0000 C.2     1  UNL1       -0.0586
     28 C           9.9282    2.8388    0.0000 C.2     1  UNL1       -0.0613
     29 C           4.7320   -5.1612    0.0000 C.2     1  UNL1       -0.0504
     30 C           9.0622    2.3388    0.0000 C.2     1  UNL1       -0.0588
     31 C           3.8660   -4.6612    0.0000 C.3     1  UNL1       -0.0397
     32 C           5.5981   -4.6612    0.0000 C.2     1  UNL1       -0.0588
     33 C           9.0622    1.3388    0.0000 C.2     1  UNL1       -0.0504
     34 C           5.5981   -3.6612    0.0000 C.2     1  UNL1       -0.0613
     35 C           9.9282    0.8388    0.0000 C.3     1  UNL1       -0.0397
     36 C           8.1962    0.8388    0.0000 C.2     1  UNL1       -0.0588
     37 C           6.4641   -3.1612    0.0000 C.2     1  UNL1       -0.0588
     38 C           8.1962   -0.1612    0.0000 C.2     1  UNL1       -0.0615
     39 C           6.4641   -2.1612    0.0000 C.2     1  UNL1       -0.0504
     40 C           7.3301   -0.6612    0.0000 C.2     1  UNL1       -0.0615
     41 C           7.3301   -1.6612    0.0000 C.2     1  UNL1       -0.0588
     42 C           5.5981   -1.6612    0.0000 C.3     1  UNL1       -0.0397
     43 H          13.0054    9.4849    0.0000 H       1  UNL1        0.0295
     44 H          12.1938    9.3124    0.0000 H       1  UNL1        0.0295
     45 H          13.5692    6.9301    0.0000 H       1  UNL1        0.0300
     46 H          14.1244    7.5467    0.0000 H       1  UNL1        0.0300
     47 H          13.5765    9.1604    0.0000 H       1  UNL1        0.0594
     48 H          10.9338    8.6418    0.0000 H       1  UNL1        0.0235
     49 H          10.4309    7.9236    0.0000 H       1  UNL1        0.0235
     50 H          11.1491    7.4206    0.0000 H       1  UNL1        0.0235
     51 H          11.6980    9.3347    0.0000 H       1  UNL1        0.0235
     52 H          10.8224    9.2888    0.0000 H       1  UNL1        0.0235
     53 H          10.8683    8.4132    0.0000 H       1  UNL1        0.0235
     54 H          12.1277    6.2317    0.0000 H       1  UNL1        0.0239
     55 H          12.8631    5.7542    0.0000 H       1  UNL1        0.0239
     56 H          13.3406    6.4895    0.0000 H       1  UNL1        0.0239
     57 H          14.4750    9.6612    0.0000 H       1  UNL1        0.2098
     58 H          12.1972    5.5288    0.0000 H       1  UNL1        0.0653
     59 H          10.2573    5.6488    0.0000 H       1  UNL1        0.0621
     60 H           2.3894   -9.0536    0.0000 H       1  UNL1        0.0274
     61 H           2.7880   -9.7438    0.0000 H       1  UNL1        0.0274
     62 H           3.4675  -10.1362    0.0000 H       1  UNL1        0.0269
     63 H           4.2646  -10.1362    0.0000 H       1  UNL1        0.0269
     64 H           4.9441   -9.7438    0.0000 H       1  UNL1        0.0310
     65 H           5.3426   -9.0536    0.0000 H       1  UNL1        0.0310
     66 H           2.0000   -7.5412    0.0000 H       1  UNL1        0.0238
     67 H           1.3800   -8.1612    0.0000 H       1  UNL1        0.0238
     68 H           2.0000   -8.7812    0.0000 H       1  UNL1        0.0238
     69 H           3.0369   -6.9852    0.0000 H       1  UNL1        0.0238
     70 H           2.1900   -6.7583    0.0000 H       1  UNL1        0.0238
     71 H           1.9631   -7.6052    0.0000 H       1  UNL1        0.0238
     72 H          11.3503    3.3018    0.0000 H       1  UNL1        0.0278
     73 H          12.1972    3.5288    0.0000 H       1  UNL1        0.0278
     74 H          11.9703    4.3757    0.0000 H       1  UNL1        0.0278
     75 H           9.3913    4.1488    0.0000 H       1  UNL1        0.0620
     76 H           3.3291   -6.3512    0.0000 H       1  UNL1        0.0621
     77 H           5.9081   -8.1982    0.0000 H       1  UNL1        0.0275
     78 H           6.1350   -7.3512    0.0000 H       1  UNL1        0.0275
     79 H           5.2881   -7.1243    0.0000 H       1  UNL1        0.0275
     80 H           5.2690   -6.4712    0.0000 H       1  UNL1        0.0620
     81 H          10.4651    2.5288    0.0000 H       1  UNL1        0.0618
     82 H           8.5252    2.6488    0.0000 H       1  UNL1        0.0620
     83 H           4.1760   -4.1243    0.0000 H       1  UNL1        0.0278
     84 H           3.3291   -4.3512    0.0000 H       1  UNL1        0.0278
     85 H           3.5560   -5.1982    0.0000 H       1  UNL1        0.0278
     86 H           6.1350   -4.9712    0.0000 H       1  UNL1        0.0620
     87 H           5.0611   -3.3512    0.0000 H       1  UNL1        0.0618
     88 H           9.6182    0.3018    0.0000 H       1  UNL1        0.0278
     89 H          10.4651    0.5288    0.0000 H       1  UNL1        0.0278
     90 H          10.2382    1.3757    0.0000 H       1  UNL1        0.0278
     91 H           7.6592    1.1488    0.0000 H       1  UNL1        0.0620
     92 H           7.0010   -3.4712    0.0000 H       1  UNL1        0.0620
     93 H           8.7331   -0.4712    0.0000 H       1  UNL1        0.0618
     94 H           6.7932   -0.3512    0.0000 H       1  UNL1        0.0618
     95 H           7.8671   -1.9712    0.0000 H       1  UNL1        0.0620
     96 H           5.9081   -1.1243    0.0000 H       1  UNL1        0.0278
     97 H           5.0611   -1.3512    0.0000 H       1  UNL1        0.0278
     98 H           5.2881   -2.1982    0.0000 H       1  UNL1        0.0278
@<TRIPOS>BOND
     1     7     1    1
     2     1    57    1
     3     2    11    2
     4     3     4    1
     5     3     5    1
     6     3     8    1
     7     3     9    1
     8     4     6    1
     9     4    10    1
    10     4    11    1
    11     5     7    1
    12     5    43    1
    13     5    44    1
    14     6     7    1
    15     6    45    1
    16     6    46    1
    17     7    47    1
    18     8    51    1
    19     8    52    1
    20     8    53    1
    21     9    48    1
    22     9    49    1
    23     9    50    1
    24    10    54    1
    25    10    55    1
    26    10    56    1
    27    11    12    1
    28    12    13    2
    29    12    58    1
    30    13    15    1
    31    13    59    1
    32    14    16    1
    33    14    18    1
    34    14    21    1
    35    14    22    1
    36    15    23    1
    37    15    24    2
    38    16    17    1
    39    16    60    1
    40    16    61    1
    41    17    19    1
    42    17    62    1
    43    17    63    1
    44    18    20    2
    45    18    25    1
    46    19    20    1
    47    19    64    1
    48    19    65    1
    49    20    26    1
    50    21    66    1
    51    21    67    1
    52    21    68    1
    53    22    69    1
    54    22    70    1
    55    22    71    1
    56    23    72    1
    57    23    73    1
    58    23    74    1
    59    24    28    1
    60    24    75    1
    61    25    27    2
    62    25    76    1
    63    26    77    1
    64    26    78    1
    65    26    79    1
    66    27    29    1
    67    27    80    1
    68    28    30    2
    69    28    81    1
    70    29    31    1
    71    29    32    2
    72    30    33    1
    73    30    82    1
    74    31    83    1
    75    31    84    1
    76    31    85    1
    77    32    34    1
    78    32    86    1
    79    33    35    1
    80    33    36    2
    81    34    37    2
    82    34    87    1
    83    35    88    1
    84    35    89    1
    85    35    90    1
    86    36    38    1
    87    36    91    1
    88    37    39    1
    89    37    92    1
    90    38    40    2
    91    38    93    1
    92    39    41    2
    93    39    42    1
    94    40    41    1
    95    40    94    1
    96    41    95    1
    97    42    96    1
    98    42    97    1
    99    42    98    1
