@<TRIPOS>MOLECULE
IMPHY014472
 20 22 0 0 0
SMALL
GASTEIGER

@<TRIPOS>ATOM
      1 O           4.6660    1.2329    0.0000 O.3     1  UNL1       -0.4253
      2 O           6.3981    1.2329    0.0000 O.2     1  UNL1       -0.2501
      3 C           4.6660   -0.7671    0.0000 C.3     1  UNL1        0.0013
      4 C           5.5321   -0.2671    0.0000 C.3     1  UNL1        0.0643
      5 C           5.5323   -1.2676    0.0000 C.3     1  UNL1       -0.0318
      6 C           3.8000   -0.2671    0.0000 C.ar    1  UNL1       -0.0011
      7 C           5.5321    0.7329    0.0000 C.2     1  UNL1        0.3161
      8 C           3.8000    0.7329    0.0000 C.ar    1  UNL1        0.1351
      9 C           2.9061   -0.8018    0.0000 C.ar    1  UNL1       -0.0548
     10 C           2.9061    1.2676    0.0000 C.ar    1  UNL1       -0.0189
     11 C           2.0000   -0.2879    0.0000 C.ar    1  UNL1       -0.0613
     12 C           2.0000    0.7537    0.0000 C.ar    1  UNL1       -0.0583
     13 H           4.2409   -1.5032    0.0000 H       1  UNL1        0.0358
     14 H           6.3821   -0.2670    0.0000 H       1  UNL1        0.0420
     15 H           5.3202   -1.8501    0.0000 H       1  UNL1        0.0279
     16 H           6.1429   -1.3752    0.0000 H       1  UNL1        0.0279
     17 H           2.9132   -1.4217    0.0000 H       1  UNL1        0.0622
     18 H           2.9132    1.8875    0.0000 H       1  UNL1        0.0654
     19 H           1.4643   -0.6000    0.0000 H       1  UNL1        0.0618
     20 H           1.4643    1.0658    0.0000 H       1  UNL1        0.0619
@<TRIPOS>BOND
     1     1     7    1
     2     1     8    1
     3     2     7    2
     4     3     4    1
     5     3     5    1
     6     3     6    1
     7     3    13    1
     8     4     5    1
     9     4     7    1
    10     4    14    1
    11     5    15    1
    12     5    16    1
    13     6     8   ar
    14     6     9   ar
    15     8    10   ar
    16     9    11   ar
    17     9    17    1
    18    10    12   ar
    19    10    18    1
    20    11    12   ar
    21    11    19    1
    22    12    20    1
