@<TRIPOS>MOLECULE
IMPHY001137
 39 44 0 0 0
SMALL
GASTEIGER

@<TRIPOS>ATOM
      1 O           2.9548    0.4778    0.0000 O.3     1  UNL1       -0.4518
      2 O           2.0690   -0.9338    0.0000 O.3     1  UNL1       -0.4526
      3 O           9.7790   -0.5856    0.0000 O.3     1  UNL1       -0.4526
      4 O          10.1520    1.0489    0.0000 O.3     1  UNL1       -0.4526
      5 N           5.1140    1.3390    0.0000 N.ar    1  UNL1       -0.1992
      6 C           5.3365    0.3641    0.0000 C.ar    1  UNL1        0.2267
      7 C           6.2375   -0.0698    0.0000 C.ar    1  UNL1        0.0553
      8 C           4.6514   -0.3562    0.0000 C.ar    1  UNL1        0.0993
      9 C           5.1232   -1.2312    0.0000 C.ar    1  UNL1       -0.0070
     10 C           7.1385    0.3641    0.0000 C.ar    1  UNL1       -0.0005
     11 C           6.1015   -1.0546    0.0000 C.ar    1  UNL1       -0.0396
     12 C           3.6170   -0.3102    0.0000 C.ar    1  UNL1        0.1802
     13 C           7.3610    1.3390    0.0000 C.ar    1  UNL1       -0.0078
     14 C           3.0666   -1.1873    0.0000 C.ar    1  UNL1        0.1671
     15 C           4.5933   -2.1208    0.0000 C.ar    1  UNL1       -0.0501
     16 C           7.8910   -0.3561    0.0000 C.ar    1  UNL1       -0.0077
     17 C           5.7375    2.1208    0.0000 C.ar    1  UNL1        0.1721
     18 C           6.7375    2.1208    0.0000 C.ar    1  UNL1        0.0098
     19 C           8.8887   -0.0568    0.0000 C.ar    1  UNL1        0.1668
     20 C           8.3515    1.6613    0.0000 C.ar    1  UNL1       -0.0082
     21 C           3.5581   -2.0987    0.0000 C.ar    1  UNL1       -0.0155
     22 C           9.1205    0.9587    0.0000 C.ar    1  UNL1        0.1668
     23 C           4.1391    1.5615    0.0000 C.3     1  UNL1        0.1410
     24 C           2.0000    0.0932    0.0000 C.3     1  UNL1        0.2333
     25 C          10.5582    0.0964    0.0000 C.3     1  UNL1        0.2332
     26 H           6.5489   -1.4838    0.0000 H       1  UNL1        0.0632
     27 H           4.8939   -2.6631    0.0000 H       1  UNL1        0.0625
     28 H           7.7461   -0.9589    0.0000 H       1  UNL1        0.0662
     29 H           5.4685    2.6794    0.0000 H       1  UNL1        0.1376
     30 H           7.0065    2.6794    0.0000 H       1  UNL1        0.0683
     31 H           8.4825    2.2673    0.0000 H       1  UNL1        0.0661
     32 H           3.2347   -2.6277    0.0000 H       1  UNL1        0.0655
     33 H           4.2770    2.1660    0.0000 H       1  UNL1        0.0993
     34 H           3.5346    1.6995    0.0000 H       1  UNL1        0.0993
     35 H           4.0011    0.9570    0.0000 H       1  UNL1        0.0993
     36 H           1.8300    0.6894    0.0000 H       1  UNL1        0.1166
     37 H           1.3892   -0.0132    0.0000 H       1  UNL1        0.1166
     38 H          10.9152   -0.4105    0.0000 H       1  UNL1        0.1166
     39 H          11.0998    0.3982    0.0000 H       1  UNL1        0.1166
@<TRIPOS>UNITY_ATOM_ATTR
5 1
charge 1
@<TRIPOS>BOND
     1     1    12    1
     2     1    24    1
     3     2    14    1
     4     2    24    1
     5     3    19    1
     6     3    25    1
     7     4    22    1
     8     4    25    1
     9     5     6   ar
    10     5    17   ar
    11     5    23    1
    12     6     7    1
    13     6     8   ar
    14     7    10   ar
    15     7    11   ar
    16     8     9   ar
    17     8    12   ar
    18     9    11   ar
    19     9    15   ar
    20    10    13   ar
    21    10    16   ar
    22    11    26    1
    23    12    14   ar
    24    13    18   ar
    25    13    20   ar
    26    14    21   ar
    27    15    21   ar
    28    15    27    1
    29    16    19   ar
    30    16    28    1
    31    17    18   ar
    32    17    29    1
    33    18    30    1
    34    19    22   ar
    35    20    22   ar
    36    20    31    1
    37    21    32    1
    38    23    33    1
    39    23    34    1
    40    23    35    1
    41    24    36    1
    42    24    37    1
    43    25    38    1
    44    25    39    1
