@<TRIPOS>MOLECULE
IMPHY004433
 34 36 0 0 0
SMALL
GASTEIGER

@<TRIPOS>ATOM
      1 O           6.0682   -0.1754    0.0000 O.2     1  UNL1       -0.4544
      2 O           4.3198    2.8592    0.0000 O.3     1  UNL1       -0.5058
      3 O           8.6663   -2.6754    0.0000 O.3     1  UNL1       -0.4914
      4 O           6.0682    2.8246    0.0000 O.2     1  UNL1       -0.2869
      5 O           2.5381   -0.1995    0.0000 O.3     1  UNL1       -0.5065
      6 O          10.3984   -1.6754    0.0000 O.3     1  UNL1       -0.5033
      7 C           5.2022    1.3246    0.0000 C.ar    1  UNL1        0.1055
      8 C           6.9343    0.3246    0.0000 C.ar    1  UNL1        0.1393
      9 C           5.2022    0.3246    0.0000 C.ar    1  UNL1        0.1462
     10 C           7.8003   -0.1754    0.0000 C.ar    1  UNL1        0.0211
     11 C           6.0682    1.8246    0.0000 C.ar    1  UNL1        0.1966
     12 C           6.9343    1.3246    0.0000 C.ar    1  UNL1        0.0288
     13 C           4.3083    1.8593    0.0000 C.ar    1  UNL1        0.1347
     14 C           4.3083   -0.2101    0.0000 C.ar    1  UNL1        0.0231
     15 C           7.8003   -1.1754    0.0000 C.ar    1  UNL1       -0.0057
     16 C           8.6663    0.3246    0.0000 C.ar    1  UNL1       -0.0474
     17 C           3.4022    0.3038    0.0000 C.ar    1  UNL1        0.1239
     18 C           3.4022    1.3454    0.0000 C.ar    1  UNL1        0.0223
     19 C           8.6663   -1.6754    0.0000 C.ar    1  UNL1        0.1619
     20 C           9.5323   -0.1754    0.0000 C.ar    1  UNL1       -0.0159
     21 C           9.5323   -1.1754    0.0000 C.ar    1  UNL1        0.1585
     22 C           7.8003   -3.1754    0.0000 C.3     1  UNL1        0.0790
     23 H           7.4712    1.6346    0.0000 H       1  UNL1        0.0693
     24 H           4.3154   -0.8300    0.0000 H       1  UNL1        0.0691
     25 H           7.2634   -1.4854    0.0000 H       1  UNL1        0.0662
     26 H           8.6663    0.9446    0.0000 H       1  UNL1        0.0626
     27 H           2.8665    1.6575    0.0000 H       1  UNL1        0.0691
     28 H          10.0693    0.1346    0.0000 H       1  UNL1        0.0655
     29 H           3.7865    3.1754    0.0000 H       1  UNL1        0.2922
     30 H           2.0000    0.1084    0.0000 H       1  UNL1        0.2921
     31 H          10.9353   -1.3654    0.0000 H       1  UNL1        0.2923
     32 H           7.4903   -2.6385    0.0000 H       1  UNL1        0.0660
     33 H           7.2634   -3.4854    0.0000 H       1  UNL1        0.0660
     34 H           8.1103   -3.7123    0.0000 H       1  UNL1        0.0660
@<TRIPOS>BOND
     1     1     8   ar
     2     1     9   ar
     3     2    13    1
     4     2    29    1
     5     3    19    1
     6     3    22    1
     7     4    11    2
     8     5    17    1
     9     5    30    1
    10     6    21    1
    11     6    31    1
    12     7     9   ar
    13     7    11   ar
    14     7    13   ar
    15     8    10    1
    16     8    12   ar
    17     9    14   ar
    18    10    15   ar
    19    10    16   ar
    20    11    12   ar
    21    12    23    1
    22    13    18   ar
    23    14    17   ar
    24    14    24    1
    25    15    19   ar
    26    15    25    1
    27    16    20   ar
    28    16    26    1
    29    17    18   ar
    30    18    27    1
    31    19    21   ar
    32    20    21   ar
    33    20    28    1
    34    22    32    1
    35    22    33    1
    36    22    34    1
