@<TRIPOS>MOLECULE
IMPHY010272
 79 82 0 0 0
SMALL
GASTEIGER

@<TRIPOS>ATOM
      1 O           9.4651    1.6550    0.0000 O.3     1  UNL1       -0.3725
      2 O           6.8671    0.1550    0.0000 O.3     1  UNL1       -0.3093
      3 O           6.0010    1.6550    0.0000 O.2     1  UNL1       -0.4699
      4 O           5.1350    0.1550    0.0000 O.3     1  UNL1       -0.3404
      5 O           6.8671   -1.8450    0.0000 O.3     1  UNL1       -0.3841
      6 O           5.1350   -2.8450    0.0000 O.3     1  UNL1       -0.3864
      7 O           3.4030   -1.8450    0.0000 O.3     1  UNL1       -0.3865
      8 O          12.0632    3.1550    0.0000 O.2     1  UNL1       -0.2972
      9 O           6.0010    4.6550    0.0000 O.3     1  UNL1       -0.4646
     10 O           2.5369   -0.3450    0.0000 O.3     1  UNL1       -0.3924
     11 O           7.7331    4.6550    0.0000 O.2     1  UNL1       -0.2452
     12 O          11.1972   -4.3450    0.0000 O.3     1  UNL1       -0.5068
     13 C           7.7331    2.6550    0.0000 C.3     1  UNL1        0.0081
     14 C           7.7331    1.6550    0.0000 C.3     1  UNL1        0.0467
     15 C           8.5991    3.1550    0.0000 C.3     1  UNL1       -0.0183
     16 C           9.4651    2.6550    0.0000 C.3     1  UNL1        0.0663
     17 C           6.8671    1.1550    0.0000 C.3     1  UNL1        0.2102
     18 C          10.3312    3.1550    0.0000 C.3     1  UNL1        0.0322
     19 C           6.8671    3.1550    0.0000 C.2     1  UNL1        0.0746
     20 C           6.0010   -0.3450    0.0000 C.3     1  UNL1        0.1918
     21 C          10.3312    1.1550    0.0000 C.3     1  UNL1        0.0660
     22 C           6.0010   -1.3450    0.0000 C.3     1  UNL1        0.1342
     23 C           5.1350   -1.8450    0.0000 C.3     1  UNL1        0.1141
     24 C           4.2690   -1.3450    0.0000 C.3     1  UNL1        0.1119
     25 C           4.2690   -0.3450    0.0000 C.3     1  UNL1        0.1130
     26 C          11.1972    1.6550    0.0000 C.3     1  UNL1        0.0322
     27 C          11.1972    2.6550    0.0000 C.2     1  UNL1        0.1383
     28 C           8.5991    1.1550    0.0000 C.2     1  UNL1       -0.0816
     29 C          10.3312    0.1550    0.0000 C.3     1  UNL1       -0.0222
     30 C           6.0010    2.6550    0.0000 C.2     1  UNL1        0.0981
     31 C           3.4030    0.1550    0.0000 C.3     1  UNL1        0.0730
     32 C           6.8671    4.1550    0.0000 C.2     1  UNL1        0.3381
     33 C          11.1972   -0.3450    0.0000 C.3     1  UNL1       -0.0253
     34 C           8.5991    0.1550    0.0000 C.2     1  UNL1       -0.1022
     35 C          11.1972   -1.3450    0.0000 C.ar    1  UNL1       -0.0471
     36 C          10.3312   -1.8450    0.0000 C.ar    1  UNL1       -0.0551
     37 C          12.0632   -1.8450    0.0000 C.ar    1  UNL1       -0.0551
     38 C           5.1350    4.1550    0.0000 C.3     1  UNL1        0.0820
     39 C          10.3312   -2.8450    0.0000 C.ar    1  UNL1       -0.0199
     40 C          12.0632   -2.8450    0.0000 C.ar    1  UNL1       -0.0199
     41 C          11.1972   -3.3450    0.0000 C.ar    1  UNL1        0.1169
     42 H           7.7331    3.2750    0.0000 H       1  UNL1        0.0360
     43 H           8.2700    1.9650    0.0000 H       1  UNL1        0.0410
     44 H           8.9976    3.6300    0.0000 H       1  UNL1        0.0296
     45 H           8.2006    3.6300    0.0000 H       1  UNL1        0.0296
     46 H           8.9282    2.3450    0.0000 H       1  UNL1        0.0600
     47 H           7.4040    0.8450    0.0000 H       1  UNL1        0.1062
     48 H          10.7297    3.6300    0.0000 H       1  UNL1        0.0367
     49 H           9.9326    3.6300    0.0000 H       1  UNL1        0.0367
     50 H           6.0010    0.2750    0.0000 H       1  UNL1        0.0939
     51 H           9.7942    0.8450    0.0000 H       1  UNL1        0.0600
     52 H           6.0010   -1.9650    0.0000 H       1  UNL1        0.0671
     53 H           4.5981   -2.1550    0.0000 H       1  UNL1        0.0648
     54 H           4.2690   -1.9650    0.0000 H       1  UNL1        0.0647
     55 H           4.2690    0.2750    0.0000 H       1  UNL1        0.0647
     56 H          11.4092    1.0724    0.0000 H       1  UNL1        0.0367
     57 H          11.8078    1.7627    0.0000 H       1  UNL1        0.0367
     58 H           9.1360    1.4650    0.0000 H       1  UNL1        0.0571
     59 H           9.7206    0.2627    0.0000 H       1  UNL1        0.0293
     60 H          10.1191   -0.4276    0.0000 H       1  UNL1        0.0293
     61 H           5.4641    2.9650    0.0000 H       1  UNL1        0.1029
     62 H           3.8015    0.6299    0.0000 H       1  UNL1        0.0584
     63 H           3.0044    0.6299    0.0000 H       1  UNL1        0.0584
     64 H          11.8078   -0.4527    0.0000 H       1  UNL1        0.0314
     65 H          11.4092    0.2376    0.0000 H       1  UNL1        0.0314
     66 H           6.8671   -2.4650    0.0000 H       1  UNL1        0.2101
     67 H           4.5981   -3.1550    0.0000 H       1  UNL1        0.2100
     68 H           3.4030   -2.4650    0.0000 H       1  UNL1        0.2100
     69 H           8.0622   -0.1550    0.0000 H       1  UNL1        0.0532
     70 H           9.1360   -0.1550    0.0000 H       1  UNL1        0.0532
     71 H           2.0000   -0.0350    0.0000 H       1  UNL1        0.2095
     72 H           9.7942   -1.5350    0.0000 H       1  UNL1        0.0621
     73 H          12.6002   -1.5350    0.0000 H       1  UNL1        0.0621
     74 H           4.8250    4.6919    0.0000 H       1  UNL1        0.0661
     75 H           4.5981    3.8450    0.0000 H       1  UNL1        0.0661
     76 H           5.4450    3.6181    0.0000 H       1  UNL1        0.0661
     77 H           9.7942   -3.1550    0.0000 H       1  UNL1        0.0654
     78 H          12.6002   -3.1550    0.0000 H       1  UNL1        0.0654
     79 H          11.7341   -4.6550    0.0000 H       1  UNL1        0.2921
@<TRIPOS>BOND
     1     1    16    1
     2     1    21    1
     3    17     2    1
     4    20     2    1
     5     3    17    1
     6     3    30    1
     7     4    20    1
     8     4    25    1
     9    22     5    1
    10     5    66    1
    11    23     6    1
    12     6    67    1
    13    24     7    1
    14     7    68    1
    15     8    27    2
    16     9    32    1
    17     9    38    1
    18    10    31    1
    19    10    71    1
    20    11    32    2
    21    12    41    1
    22    12    79    1
    23    13    14    1
    24    13    15    1
    25    13    19    1
    26    13    42    1
    27    14    17    1
    28    14    28    1
    29    14    43    1
    30    16    15    1
    31    15    44    1
    32    15    45    1
    33    16    18    1
    34    16    46    1
    35    17    47    1
    36    18    27    1
    37    18    48    1
    38    18    49    1
    39    19    30    2
    40    19    32    1
    41    20    22    1
    42    20    50    1
    43    21    26    1
    44    21    29    1
    45    21    51    1
    46    22    23    1
    47    22    52    1
    48    23    24    1
    49    23    53    1
    50    24    25    1
    51    24    54    1
    52    25    31    1
    53    25    55    1
    54    26    27    1
    55    26    56    1
    56    26    57    1
    57    28    34    2
    58    28    58    1
    59    29    33    1
    60    29    59    1
    61    29    60    1
    62    30    61    1
    63    31    62    1
    64    31    63    1
    65    33    35    1
    66    33    64    1
    67    33    65    1
    68    34    69    1
    69    34    70    1
    70    35    36   ar
    71    35    37   ar
    72    36    39   ar
    73    36    72    1
    74    37    40   ar
    75    37    73    1
    76    38    74    1
    77    38    75    1
    78    38    76    1
    79    39    41   ar
    80    39    77    1
    81    40    41   ar
    82    40    78    1
