@<TRIPOS>MOLECULE
IMPHY002482
 109 117 0 0 0
SMALL
GASTEIGER

@<TRIPOS>ATOM
      1 O           8.9859    0.5419    0.0000 O.3     1  UNL1       -0.3281
      2 O          11.4246   -1.2577    0.0000 O.3     1  UNL1       -0.4500
      3 O          11.4443    1.3038    0.0000 O.3     1  UNL1       -0.4779
      4 O           9.8680   -1.9996    0.0000 O.3     1  UNL1       -0.4512
      5 O           9.8801    2.0697    0.0000 O.3     1  UNL1       -0.4275
      6 O           7.8772   -1.9655    0.0000 O.3     1  UNL1       -0.4584
      7 O          12.5834   -2.4163    0.0000 O.2     1  UNL1       -0.2449
      8 O           8.8477   -3.6798    0.0000 O.2     1  UNL1       -0.2449
      9 O           8.1481    2.0630    0.0000 O.2     1  UNL1       -0.2449
     10 O          15.2009    1.5965    0.0000 O.3     1  UNL1       -0.5027
     11 O          15.5172    0.7016    0.0000 O.3     1  UNL1       -0.5028
     12 O           8.8772   -1.9655    0.0000 O.2     1  UNL1       -0.2449
     13 O          13.3451    4.0226    0.0000 O.3     1  UNL1       -0.5031
     14 O          15.1074    2.9755    0.0000 O.3     1  UNL1       -0.5009
     15 O          16.3110   -0.4298    0.0000 O.3     1  UNL1       -0.5009
     16 O          15.5981   -2.3518    0.0000 O.3     1  UNL1       -0.5032
     17 O           9.3740   -6.3338    0.0000 O.3     1  UNL1       -0.5028
     18 O           8.3803   -6.3338    0.0000 O.3     1  UNL1       -0.5028
     19 O          12.4464   -4.5757    0.0000 O.3     1  UNL1       -0.5032
     20 O           5.3079   -4.5757    0.0000 O.3     1  UNL1       -0.4476
     21 O          11.4223   -6.3496    0.0000 O.3     1  UNL1       -0.5009
     22 O           6.3321   -6.3496    0.0000 O.3     1  UNL1       -0.5009
     23 O           7.2686    5.5597    0.0000 O.3     1  UNL1       -0.5032
     24 O          10.7327    5.5730    0.0000 O.3     1  UNL1       -0.5032
     25 O           8.9968    6.5663    0.0000 O.3     1  UNL1       -0.5009
     26 O           6.3146   -2.8475    0.0000 O.3     1  UNL1       -0.5008
     27 O           5.3213   -1.1116    0.0000 O.3     1  UNL1       -0.5008
     28 O           3.3213   -1.1039    0.0000 O.3     1  UNL1       -0.5032
     29 O           2.3079   -4.5641    0.0000 O.3     1  UNL1       -0.4770
     30 O           3.8046   -5.4359    0.0000 O.2     1  UNL1       -0.2450
     31 C          10.7780   -0.4927    0.0000 C.3     1  UNL1        0.1850
     32 C           9.8680   -0.9996    0.0000 C.3     1  UNL1        0.1730
     33 C          10.7861    0.5489    0.0000 C.3     1  UNL1        0.2021
     34 C           9.0020   -0.4996    0.0000 C.3     1  UNL1        0.1371
     35 C           9.8840    1.0697    0.0000 C.3     1  UNL1        0.2464
     36 C           8.1360   -0.9996    0.0000 C.3     1  UNL1        0.1226
     37 C          12.4333    1.4621    0.0000 C.ar    1  UNL1        0.1364
     38 C          12.4110   -1.4313    0.0000 C.2     1  UNL1        0.3405
     39 C          13.2944    0.9505    0.0000 C.ar    1  UNL1        0.0735
     40 C           9.3772   -2.8315    0.0000 C.2     1  UNL1        0.3405
     41 C          13.2799   -0.9330    0.0000 C.ar    1  UNL1        0.0741
     42 C          13.6282    0.0061    0.0000 C.ar    1  UNL1        0.0485
     43 C           9.0122    2.5663    0.0000 C.2     1  UNL1        0.3417
     44 C           9.8772   -3.6976    0.0000 C.ar    1  UNL1        0.0740
     45 C          12.4303    2.5054    0.0000 C.ar    1  UNL1        0.0261
     46 C           8.3772   -2.8315    0.0000 C.2     1  UNL1        0.3401
     47 C          14.2121    1.4467    0.0000 C.ar    1  UNL1        0.1735
     48 C           9.3772   -4.5636    0.0000 C.ar    1  UNL1        0.0458
     49 C          14.6539    0.1969    0.0000 C.ar    1  UNL1        0.1709
     50 C          13.9331   -1.7464    0.0000 C.ar    1  UNL1       -0.0017
     51 C           7.8772   -3.6976    0.0000 C.ar    1  UNL1        0.0740
     52 C           8.3772   -4.5636    0.0000 C.ar    1  UNL1        0.0458
     53 C          13.3364    3.0227    0.0000 C.ar    1  UNL1        0.1655
     54 C          14.2333    2.4898    0.0000 C.ar    1  UNL1        0.2014
     55 C           9.0083    3.5663    0.0000 C.ar    1  UNL1        0.0662
     56 C          10.9187   -3.6815    0.0000 C.ar    1  UNL1       -0.0017
     57 C          15.3258   -0.6013    0.0000 C.ar    1  UNL1        0.2012
     58 C          14.9630   -1.5794    0.0000 C.ar    1  UNL1        0.1628
     59 C           9.8840   -5.4736    0.0000 C.ar    1  UNL1        0.1708
     60 C           7.8703   -5.4736    0.0000 C.ar    1  UNL1        0.1708
     61 C           6.8356   -3.6815    0.0000 C.ar    1  UNL1       -0.0009
     62 C          11.4464   -4.5795    0.0000 C.ar    1  UNL1        0.1628
     63 C          10.9256   -5.4816    0.0000 C.ar    1  UNL1        0.2012
     64 C           9.8724    4.0697    0.0000 C.ar    1  UNL1       -0.0023
     65 C           8.1404    4.0630    0.0000 C.ar    1  UNL1       -0.0023
     66 C           6.3079   -4.5795    0.0000 C.ar    1  UNL1        0.1743
     67 C           6.8287   -5.4816    0.0000 C.ar    1  UNL1        0.2021
     68 C           8.1365    5.0630    0.0000 C.ar    1  UNL1        0.1628
     69 C           9.8686    5.0697    0.0000 C.ar    1  UNL1        0.1628
     70 C           9.0006    5.5663    0.0000 C.ar    1  UNL1        0.2006
     71 C           4.8112   -3.7077    0.0000 C.ar    1  UNL1        0.1876
     72 C           3.8112   -3.7039    0.0000 C.ar    1  UNL1        0.1083
     73 C           5.3146   -2.8436    0.0000 C.ar    1  UNL1        0.2060
     74 C           3.3146   -2.8359    0.0000 C.ar    1  UNL1        0.0013
     75 C           4.8179   -1.9757    0.0000 C.ar    1  UNL1        0.2044
     76 C           3.8179   -1.9718    0.0000 C.ar    1  UNL1        0.1630
     77 C           3.3079   -4.5680    0.0000 C.2     1  UNL1        0.3406
     78 H          10.6255   -1.3289    0.0000 H       1  UNL1        0.0813
     79 H          10.6009   -1.4302    0.0000 H       1  UNL1        0.0801
     80 H          10.6464    1.3873    0.0000 H       1  UNL1        0.0836
     81 H           8.2626   -0.0803    0.0000 H       1  UNL1        0.0670
     82 H           9.3453    1.3766    0.0000 H       1  UNL1        0.1098
     83 H           7.9755   -0.4007    0.0000 H       1  UNL1        0.0725
     84 H           7.5160   -0.9996    0.0000 H       1  UNL1        0.0725
     85 H          11.8937    2.8160    0.0000 H       1  UNL1        0.0692
     86 H          13.7108   -2.3252    0.0000 H       1  UNL1        0.0664
     87 H          11.2224   -3.1410    0.0000 H       1  UNL1        0.0664
     88 H           6.5319   -3.1410    0.0000 H       1  UNL1        0.0664
     89 H          15.4269    2.1738    0.0000 H       1  UNL1        0.2923
     90 H          10.4105    3.7617    0.0000 H       1  UNL1        0.0663
     91 H           7.6046    3.7509    0.0000 H       1  UNL1        0.0663
     92 H          16.0558    0.3945    0.0000 H       1  UNL1        0.2923
     93 H          12.8108    4.3373    0.0000 H       1  UNL1        0.2923
     94 H          15.1176    3.5954    0.0000 H       1  UNL1        0.2924
     95 H          16.7084   -0.9057    0.0000 H       1  UNL1        0.2924
     96 H          15.3803   -2.9323    0.0000 H       1  UNL1        0.2923
     97 H           9.6778   -6.8742    0.0000 H       1  UNL1        0.2923
     98 H           8.0765   -6.8742    0.0000 H       1  UNL1        0.2923
     99 H          12.7585   -5.1114    0.0000 H       1  UNL1        0.2923
    100 H          12.0423   -6.3519    0.0000 H       1  UNL1        0.2924
    101 H           5.7121   -6.3519    0.0000 H       1  UNL1        0.2924
    102 H           6.7328    5.2476    0.0000 H       1  UNL1        0.2923
    103 H          10.7303    6.1930    0.0000 H       1  UNL1        0.2923
    104 H           8.4586    6.8742    0.0000 H       1  UNL1        0.2924
    105 H           2.6946   -2.8335    0.0000 H       1  UNL1        0.0665
    106 H           6.6266   -2.3118    0.0000 H       1  UNL1        0.2924
    107 H           5.0133   -0.5735    0.0000 H       1  UNL1        0.2924
    108 H           2.7013   -1.1015    0.0000 H       1  UNL1        0.2923
    109 H           2.0000   -4.0260    0.0000 H       1  UNL1        0.2954
@<TRIPOS>BOND
     1     1    34    1
     2     1    35    1
     3     2    31    1
     4     2    38    1
     5     3    33    1
     6     3    37    1
     7     4    32    1
     8     4    40    1
     9    35     5    1
    10     5    43    1
    11     6    36    1
    12     6    46    1
    13     7    38    2
    14     8    40    2
    15     9    43    2
    16    10    47    1
    17    10    89    1
    18    11    49    1
    19    11    92    1
    20    12    46    2
    21    13    53    1
    22    13    93    1
    23    14    54    1
    24    14    94    1
    25    15    57    1
    26    15    95    1
    27    16    58    1
    28    16    96    1
    29    17    59    1
    30    17    97    1
    31    18    60    1
    32    18    98    1
    33    19    62    1
    34    19    99    1
    35    20    66    1
    36    20    71    1
    37    21    63    1
    38    21   100    1
    39    22    67    1
    40    22   101    1
    41    23    68    1
    42    23   102    1
    43    24    69    1
    44    24   103    1
    45    25    70    1
    46    25   104    1
    47    26    73    1
    48    26   106    1
    49    27    75    1
    50    27   107    1
    51    28    76    1
    52    28   108    1
    53    29    77    1
    54    29   109    1
    55    30    77    2
    56    31    32    1
    57    31    33    1
    58    31    78    1
    59    32    34    1
    60    32    79    1
    61    33    35    1
    62    33    80    1
    63    34    36    1
    64    34    81    1
    65    35    82    1
    66    36    83    1
    67    36    84    1
    68    37    39   ar
    69    37    45   ar
    70    38    41    1
    71    39    42    1
    72    39    47   ar
    73    40    44    1
    74    41    42   ar
    75    41    50   ar
    76    42    49   ar
    77    43    55    1
    78    44    48   ar
    79    44    56   ar
    80    45    53   ar
    81    45    85    1
    82    46    51    1
    83    47    54   ar
    84    48    52    1
    85    48    59   ar
    86    49    57   ar
    87    50    58   ar
    88    50    86    1
    89    51    52   ar
    90    51    61   ar
    91    52    60   ar
    92    53    54   ar
    93    55    64   ar
    94    55    65   ar
    95    56    62   ar
    96    56    87    1
    97    57    58   ar
    98    59    63   ar
    99    60    67   ar
   100    61    66   ar
   101    61    88    1
   102    62    63   ar
   103    64    69   ar
   104    64    90    1
   105    65    68   ar
   106    65    91    1
   107    66    67   ar
   108    68    70   ar
   109    69    70   ar
   110    71    72   ar
   111    71    73   ar
   112    72    74   ar
   113    72    77    1
   114    73    75   ar
   115    74    76   ar
   116    74   105    1
   117    75    76   ar
