@<TRIPOS>MOLECULE
IMPHY000475
 26 29 0 0 0
SMALL
GASTEIGER

@<TRIPOS>ATOM
      1 C        2486.1000 2519.8000    0.0000 C.3     1  UNL1        0.0001
      2 C        2486.1000 2479.8000    0.0000 C.3     1  UNL1        0.0025
      3 C        2520.6500 2499.9500    0.0000 C.3     1  UNL1        0.0001
      4 C        2555.1900 2479.8000    0.0000 C.3     1  UNL1        0.0000
      5 C        2589.8300 2499.9500    0.0000 C.3     1  UNL1        0.0004
      6 C        2589.8300 2540.3500    0.0000 C.3     1  UNL1        0.0065
      7 C        2555.1900 2560.5000    0.0000 C.3     1  UNL1        0.0004
      8 C        2520.6500 2540.3500    0.0000 C.3     1  UNL1        0.0000
      9 C        2589.8300 2580.3500    0.0000 C.3     1  UNL1        0.0004
     10 C        2624.3700 2560.5000    0.0000 C.3     1  UNL1        0.0576
     11 C        2658.9100 2540.3500    0.0000 C.3     1  UNL1        0.0073
     12 C        2658.9100 2499.9500    0.0000 C.3     1  UNL1        0.0004
     13 C        2624.3700 2600.5000    0.0000 C.2     1  UNL1        0.1507
     14 C        2659.0100 2620.4500    0.0000 C.3     1  UNL1        0.0722
     15 O        2589.7300 2620.4500    0.0000 O.2     1  UNL1       -0.2961
     16 C        2555.1900 2439.5000    0.0000 C.3     1  UNL1        0.0000
     17 C        2520.6500 2419.3500    0.0000 C.3     1  UNL1        0.0000
     18 C        2486.1000 2439.5000    0.0000 C.3     1  UNL1        0.0015
     19 C        2451.5600 2419.3500    0.0000 C.3     1  UNL1        0.0185
     20 C        2417.0200 2439.5000    0.0000 C.3     1  UNL1        0.0881
     21 C        2417.0200 2479.8000    0.0000 C.3     1  UNL1        0.1664
     22 C        2451.5600 2499.9500    0.0000 C.3     1  UNL1        0.0343
     23 O        2382.3800 2499.8500    0.0000 O.3     1  UNL1       -0.2217
     24 N        2382.3800 2419.5500    0.0000 N.3     1  UNL1       -0.2693
     25 C        2340.9900 2443.3700    0.0000 C.3     1  UNL1        0.0897
     26 C        2382.3800 2379.5500    0.0000 C.3     1  UNL1        0.0897
@<TRIPOS>BOND
     1     2     1    1
     2     2     3    1
     3     2    18    1
     4     2    22    1
     5     3     4    1
     6     3     8    1
     7     4     5    1
     8     4    16    1
     9     5     6    1
    10     5    12    1
    11     6     9    1
    12     6    10    1
    13     7     6    1
    14     8     7    1
    15    10    11    1
    16    10    13    1
    17    12    11    1
    18    13    14    1
    19    13    15    2
    20    17    16    1
    21    18    17    1
    22    18    19    1
    23    19    20    1
    24    20    24    1
    25    21    20    1
    26    21    23    1
    27    22    21    1
    28    24    25    1
    29    24    26    1
