@<TRIPOS>MOLECULE
IMPHY015915
 34 33 0 0 0
SMALL
GASTEIGER

@<TRIPOS>ATOM
      1 O           2.8660   -1.0600    0.0000 O.2     1  UNL1       -0.2930
      2 C           7.1962    0.4400    0.0000 C.3     1  UNL1       -0.0283
      3 C           8.0622   -0.0600    0.0000 C.3     1  UNL1       -0.0308
      4 C           6.3301   -0.0600    0.0000 C.2     1  UNL1       -0.0723
      5 C           8.9282    0.4400    0.0000 C.2     1  UNL1       -0.0850
      6 C           9.7942   -0.0600    0.0000 C.2     1  UNL1       -0.0796
      7 C           6.3301   -1.0600    0.0000 C.3     1  UNL1       -0.0435
      8 C           5.4641    0.4400    0.0000 C.2     1  UNL1       -0.0627
      9 C          10.6603    0.4400    0.0000 C.3     1  UNL1       -0.0440
     10 C           9.7942   -1.0600    0.0000 C.3     1  UNL1       -0.0440
     11 C           4.5981   -0.0600    0.0000 C.2     1  UNL1       -0.0585
     12 C           3.7320    0.4400    0.0000 C.2     1  UNL1       -0.0195
     13 C           2.8660   -0.0600    0.0000 C.2     1  UNL1        0.1530
     14 C           2.0000    0.4400    0.0000 C.3     1  UNL1       -0.0020
     15 H           7.5947    0.9149    0.0000 H       1  UNL1        0.0313
     16 H           6.7976    0.9149    0.0000 H       1  UNL1        0.0313
     17 H           7.6636   -0.5349    0.0000 H       1  UNL1        0.0310
     18 H           8.4607   -0.5349    0.0000 H       1  UNL1        0.0310
     19 H           8.9282    1.0600    0.0000 H       1  UNL1        0.0572
     20 H           5.7101   -1.0600    0.0000 H       1  UNL1        0.0274
     21 H           6.3301   -1.6800    0.0000 H       1  UNL1        0.0274
     22 H           6.9501   -1.0600    0.0000 H       1  UNL1        0.0274
     23 H           5.4641    1.0600    0.0000 H       1  UNL1        0.0617
     24 H          10.9703   -0.0969    0.0000 H       1  UNL1        0.0274
     25 H          11.1972    0.7500    0.0000 H       1  UNL1        0.0274
     26 H          10.3503    0.9769    0.0000 H       1  UNL1        0.0274
     27 H           9.1742   -1.0600    0.0000 H       1  UNL1        0.0274
     28 H           9.7942   -1.6800    0.0000 H       1  UNL1        0.0274
     29 H          10.4142   -1.0600    0.0000 H       1  UNL1        0.0274
     30 H           4.5981   -0.6800    0.0000 H       1  UNL1        0.0619
     31 H           3.7320    1.0600    0.0000 H       1  UNL1        0.0652
     32 H           2.3100    0.9769    0.0000 H       1  UNL1        0.0309
     33 H           1.4631    0.7500    0.0000 H       1  UNL1        0.0309
     34 H           1.6900   -0.0969    0.0000 H       1  UNL1        0.0309
@<TRIPOS>BOND
     1     1    13    2
     2     2     3    1
     3     2     4    1
     4     2    15    1
     5     2    16    1
     6     3     5    1
     7     3    17    1
     8     3    18    1
     9     4     7    1
    10     4     8    2
    11     5     6    2
    12     5    19    1
    13     6     9    1
    14     6    10    1
    15     7    20    1
    16     7    21    1
    17     7    22    1
    18     8    11    1
    19     8    23    1
    20     9    24    1
    21     9    25    1
    22     9    26    1
    23    10    27    1
    24    10    28    1
    25    10    29    1
    26    11    12    2
    27    11    30    1
    28    12    13    1
    29    12    31    1
    30    13    14    1
    31    14    32    1
    32    14    33    1
    33    14    34    1
