@<TRIPOS>MOLECULE
IMPHY014214
 41 43 0 0 0
SMALL
GASTEIGER

@<TRIPOS>ATOM
      1 O           2.8641   -0.6158    0.0000 O.3     1  UNL1       -0.3689
      2 O           5.5301    1.9050    0.0000 O.3     1  UNL1       -0.4941
      3 O           5.5301   -2.0950    0.0000 O.3     1  UNL1       -0.5057
      4 O           9.0602    0.9292    0.0000 O.2     1  UNL1       -0.4911
      5 O           7.2785    1.9396    0.0000 O.2     1  UNL1       -0.2832
      6 O           7.2785   -2.1296    0.0000 O.2     1  UNL1       -0.2870
      7 C           4.6641    0.4050    0.0000 C.ar    1  UNL1        0.0065
      8 C           3.7702    0.9397    0.0000 C.3     1  UNL1        0.0024
      9 C           4.6641   -0.5950    0.0000 C.ar    1  UNL1        0.0297
     10 C           3.7702   -1.1297    0.0000 C.3     1  UNL1        0.0849
     11 C           2.8641    0.4258    0.0000 C.3     1  UNL1        0.0607
     12 C           5.5301    0.9050    0.0000 C.ar    1  UNL1        0.1355
     13 C           5.5301   -1.0950    0.0000 C.ar    1  UNL1        0.1344
     14 C           6.3961    0.4050    0.0000 C.ar    1  UNL1        0.0815
     15 C           6.3961   -0.5950    0.0000 C.ar    1  UNL1        0.0779
     16 C           3.7817   -2.1296    0.0000 C.3     1  UNL1       -0.0344
     17 C           2.0000    0.9292    0.0000 C.3     1  UNL1       -0.0384
     18 C           7.2901    0.9397    0.0000 C.2     1  UNL1        0.2317
     19 C           7.2901   -1.1297    0.0000 C.2     1  UNL1        0.1940
     20 C           8.1962    0.4258    0.0000 C.2     1  UNL1        0.1709
     21 C           8.1962   -0.6158    0.0000 C.2     1  UNL1        0.0313
     22 C           4.6641    2.4050    0.0000 C.3     1  UNL1        0.0788
     23 C           9.9282    0.4325    0.0000 C.3     1  UNL1        0.0790
     24 H           4.1748    1.4095    0.0000 H       1  UNL1        0.0339
     25 H           3.3765    1.4187    0.0000 H       1  UNL1        0.0339
     26 H           3.2362   -1.4448    0.0000 H       1  UNL1        0.0645
     27 H           2.3266    0.1169    0.0000 H       1  UNL1        0.0597
     28 H           3.1618   -2.1368    0.0000 H       1  UNL1        0.0258
     29 H           3.7889   -2.7496    0.0000 H       1  UNL1        0.0258
     30 H           4.4017   -2.1224    0.0000 H       1  UNL1        0.0258
     31 H           2.3121    1.4649    0.0000 H       1  UNL1        0.0255
     32 H           1.4643    1.2412    0.0000 H       1  UNL1        0.0255
     33 H           1.6879    0.3934    0.0000 H       1  UNL1        0.0255
     34 H           8.7319   -0.9279    0.0000 H       1  UNL1        0.0694
     35 H           4.9932   -2.4050    0.0000 H       1  UNL1        0.2922
     36 H           4.9741    2.9419    0.0000 H       1  UNL1        0.0660
     37 H           4.1272    2.7150    0.0000 H       1  UNL1        0.0660
     38 H           4.3541    1.8681    0.0000 H       1  UNL1        0.0660
     39 H           9.6203   -0.1056    0.0000 H       1  UNL1        0.0660
     40 H          10.4663    0.1246    0.0000 H       1  UNL1        0.0660
     41 H          10.2361    0.9706    0.0000 H       1  UNL1        0.0660
@<TRIPOS>BOND
     1     1    10    1
     2     1    11    1
     3     2    12    1
     4     2    22    1
     5     3    13    1
     6     3    35    1
     7     4    20    1
     8     4    23    1
     9     5    18    2
    10     6    19    2
    11     7     8    1
    12     7     9   ar
    13     7    12   ar
    14     8    11    1
    15     8    24    1
    16     8    25    1
    17     9    10    1
    18     9    13   ar
    19    10    16    1
    20    10    26    1
    21    11    17    1
    22    11    27    1
    23    12    14   ar
    24    13    15   ar
    25    14    15   ar
    26    14    18    1
    27    15    19    1
    28    16    28    1
    29    16    29    1
    30    16    30    1
    31    17    31    1
    32    17    32    1
    33    17    33    1
    34    18    20    1
    35    19    21    1
    36    20    21    2
    37    21    34    1
    38    22    36    1
    39    22    37    1
    40    22    38    1
    41    23    39    1
    42    23    40    1
    43    23    41    1
