@<TRIPOS>MOLECULE
IMPHY007801
 51 55 0 0 0
SMALL
GASTEIGER

@<TRIPOS>ATOM
      1 O           3.2118   -3.7242    0.0000 O.3     1  UNL1       -0.4878
      2 O           4.7340   -0.6444    0.0000 O.2     1  UNL1       -0.4550
      3 O           5.6521    1.9040    0.0000 O.3     1  UNL1       -0.4836
      4 O           2.1360    0.8556    0.0000 O.2     1  UNL1       -0.2864
      5 O           2.0116    3.9925    0.0000 O.3     1  UNL1       -0.4914
      6 O           3.8149    5.0523    0.0000 O.3     1  UNL1       -0.4913
      7 C           4.2424   -3.8236    0.0000 C.3     1  UNL1        0.1067
      8 C           4.6571   -2.8748    0.0000 C.3     1  UNL1        0.0167
      9 C           4.7491   -4.6858    0.0000 C.3     1  UNL1       -0.0093
     10 C           3.8841   -2.1859    0.0000 C.ar    1  UNL1        0.0406
     11 C           2.9860   -2.7137    0.0000 C.ar    1  UNL1        0.1277
     12 C           3.8680   -1.1444    0.0000 C.ar    1  UNL1        0.1457
     13 C           3.0020   -0.6444    0.0000 C.ar    1  UNL1        0.0651
     14 C           4.2558   -5.5556    0.0000 C.3     1  UNL1       -0.0593
     15 C           5.7491   -4.6781    0.0000 C.3     1  UNL1       -0.0593
     16 C           2.0840   -2.1929    0.0000 C.ar    1  UNL1       -0.0187
     17 C           3.8680    0.8556    0.0000 C.ar    1  UNL1        0.0745
     18 C           2.0920   -1.1513    0.0000 C.ar    1  UNL1       -0.0439
     19 C           4.7340    0.3556    0.0000 C.ar    1  UNL1        0.1543
     20 C           3.0020    0.3556    0.0000 C.ar    1  UNL1        0.2007
     21 C           3.8520    1.8971    0.0000 C.ar    1  UNL1        0.0345
     22 C           5.6440    0.8624    0.0000 C.3     1  UNL1        0.1477
     23 C           4.7500    2.4248    0.0000 C.ar    1  UNL1        0.1327
     24 C           2.9000    2.4177    0.0000 C.ar    1  UNL1       -0.0049
     25 C           4.7584    3.5098    0.0000 C.ar    1  UNL1        0.0260
     26 C           2.8833    3.5026    0.0000 C.ar    1  UNL1        0.1623
     27 C           3.8187    4.0523    0.0000 C.ar    1  UNL1        0.1650
     28 C           2.0000    4.9925    0.0000 C.3     1  UNL1        0.0790
     29 C           4.6790    5.5556    0.0000 C.3     1  UNL1        0.0790
     30 H           3.9090   -4.3464    0.0000 H       1  UNL1        0.0739
     31 H           5.1960   -3.1815    0.0000 H       1  UNL1        0.0351
     32 H           5.0187   -2.3712    0.0000 H       1  UNL1        0.0351
     33 H           5.0550   -4.1465    0.0000 H       1  UNL1        0.0331
     34 H           3.7165   -5.2498    0.0000 H       1  UNL1        0.0233
     35 H           5.7538   -5.2981    0.0000 H       1  UNL1        0.0233
     36 H           6.3690   -4.6733    0.0000 H       1  UNL1        0.0233
     37 H           5.7443   -4.0581    0.0000 H       1  UNL1        0.0233
     38 H           3.9499   -6.0950    0.0000 H       1  UNL1        0.0233
     39 H           4.7951   -5.8615    0.0000 H       1  UNL1        0.0233
     40 H           1.5458   -2.5008    0.0000 H       1  UNL1        0.0654
     41 H           1.5587   -0.8351    0.0000 H       1  UNL1        0.0627
     42 H           5.8486    0.2771    0.0000 H       1  UNL1        0.0779
     43 H           6.2557    0.9638    0.0000 H       1  UNL1        0.0779
     44 H           2.3692    2.0974    0.0000 H       1  UNL1        0.0663
     45 H           5.2965    3.8177    0.0000 H       1  UNL1        0.0692
     46 H           2.6200    4.9996    0.0000 H       1  UNL1        0.0660
     47 H           1.9928    5.6124    0.0000 H       1  UNL1        0.0660
     48 H           1.3800    4.9853    0.0000 H       1  UNL1        0.0660
     49 H           4.9910    5.0199    0.0000 H       1  UNL1        0.0660
     50 H           5.2147    5.8677    0.0000 H       1  UNL1        0.0660
     51 H           4.3669    6.0914    0.0000 H       1  UNL1        0.0660
@<TRIPOS>BOND
     1     1     7    1
     2     1    11    1
     3     2    12   ar
     4     2    19   ar
     5     3    22    1
     6     3    23    1
     7     4    20    2
     8     5    26    1
     9     5    28    1
    10     6    27    1
    11     6    29    1
    12     7     8    1
    13     7     9    1
    14     7    30    1
    15     8    10    1
    16     8    31    1
    17     8    32    1
    18     9    14    1
    19     9    15    1
    20     9    33    1
    21    10    11   ar
    22    10    12   ar
    23    11    16   ar
    24    12    13   ar
    25    13    18   ar
    26    13    20   ar
    27    14    34    1
    28    14    38    1
    29    14    39    1
    30    15    35    1
    31    15    36    1
    32    15    37    1
    33    16    18   ar
    34    16    40    1
    35    17    19   ar
    36    17    20   ar
    37    17    21    1
    38    18    41    1
    39    19    22    1
    40    21    23   ar
    41    21    24   ar
    42    22    42    1
    43    22    43    1
    44    23    25   ar
    45    24    26   ar
    46    24    44    1
    47    25    27   ar
    48    25    45    1
    49    26    27   ar
    50    28    46    1
    51    28    47    1
    52    28    48    1
    53    29    49    1
    54    29    50    1
    55    29    51    1
