@<TRIPOS>MOLECULE
IMPHY009773
 27 27 0 0 0
SMALL
GASTEIGER

@<TRIPOS>ATOM
      1 O           2.0000   -1.2500    0.0000 O.2     1  UNL1       -0.2924
      2 C           3.7320   -1.2500    0.0000 C.3     1  UNL1        0.0190
      3 C           4.5981   -0.7500    0.0000 C.3     1  UNL1       -0.0397
      4 C           4.5981    0.2500    0.0000 C.3     1  UNL1       -0.0305
      5 C           3.7320    0.7500    0.0000 C.2     1  UNL1       -0.0637
      6 C           3.7320    1.7500    0.0000 C.3     1  UNL1       -0.0252
      7 C           2.8660   -0.7500    0.0000 C.2     1  UNL1        0.1589
      8 C           2.8660    0.2500    0.0000 C.2     1  UNL1       -0.0195
      9 C           3.7320   -2.2500    0.0000 C.3     1  UNL1       -0.0554
     10 C           4.5981    2.2500    0.0000 C.3     1  UNL1       -0.0589
     11 C           2.8660    2.2500    0.0000 C.3     1  UNL1       -0.0589
     12 H           4.4682   -1.6750    0.0000 H       1  UNL1        0.0378
     13 H           4.8101   -1.3326    0.0000 H       1  UNL1        0.0275
     14 H           5.2087   -0.6423    0.0000 H       1  UNL1        0.0275
     15 H           5.2087    0.1423    0.0000 H       1  UNL1        0.0310
     16 H           4.8101    0.8326    0.0000 H       1  UNL1        0.0310
     17 H           3.7320    2.3700    0.0000 H       1  UNL1        0.0340
     18 H           2.3291    0.5600    0.0000 H       1  UNL1        0.0652
     19 H           3.1120   -2.2500    0.0000 H       1  UNL1        0.0237
     20 H           3.7320   -2.8700    0.0000 H       1  UNL1        0.0237
     21 H           4.3520   -2.2500    0.0000 H       1  UNL1        0.0237
     22 H           4.9081    1.7131    0.0000 H       1  UNL1        0.0235
     23 H           5.1350    2.5600    0.0000 H       1  UNL1        0.0235
     24 H           4.2881    2.7869    0.0000 H       1  UNL1        0.0235
     25 H           3.1760    2.7869    0.0000 H       1  UNL1        0.0235
     26 H           2.3291    2.5600    0.0000 H       1  UNL1        0.0235
     27 H           2.5560    1.7131    0.0000 H       1  UNL1        0.0235
@<TRIPOS>BOND
     1     1     7    2
     2     2     3    1
     3     2     7    1
     4     2     9    1
     5     2    12    1
     6     3     4    1
     7     3    13    1
     8     3    14    1
     9     4     5    1
    10     4    15    1
    11     4    16    1
    12     5     6    1
    13     5     8    2
    14     6    10    1
    15     6    11    1
    16     6    17    1
    17     7     8    1
    18     8    18    1
    19     9    19    1
    20     9    20    1
    21     9    21    1
    22    10    22    1
    23    10    23    1
    24    10    24    1
    25    11    25    1
    26    11    26    1
    27    11    27    1
