@<TRIPOS>MOLECULE
IMPHY016183
 53 52 0 0 0
SMALL
GASTEIGER

@<TRIPOS>ATOM
      1 C          11.5263   -0.2500    0.0000 C.3     1  UNL1       -0.0530
      2 C          10.6603    0.2500    0.0000 C.3     1  UNL1       -0.0528
      3 C          12.3923    0.2500    0.0000 C.3     1  UNL1       -0.0528
      4 C           9.7942   -0.2500    0.0000 C.3     1  UNL1       -0.0496
      5 C          13.2583   -0.2500    0.0000 C.3     1  UNL1       -0.0496
      6 C           8.9282    0.2500    0.0000 C.3     1  UNL1       -0.0348
      7 C           4.5981   -0.2500    0.0000 C.3     1  UNL1       -0.0528
      8 C           5.4641    0.2500    0.0000 C.3     1  UNL1       -0.0496
      9 C           3.7320    0.2500    0.0000 C.3     1  UNL1       -0.0533
     10 C           6.3301   -0.2500    0.0000 C.3     1  UNL1       -0.0348
     11 C          14.1244    0.2500    0.0000 C.3     1  UNL1       -0.0345
     12 C           8.0622   -0.2500    0.0000 C.2     1  UNL1       -0.0879
     13 C           7.1962    0.2500    0.0000 C.2     1  UNL1       -0.0879
     14 C           2.8660   -0.2500    0.0000 C.3     1  UNL1       -0.0559
     15 C           2.0000    0.2500    0.0000 C.3     1  UNL1       -0.0653
     16 C          14.9904   -0.2500    0.0000 C.2     1  UNL1       -0.0840
     17 C          15.8564    0.2500    0.0000 C.2     1  UNL1       -0.0662
     18 C          16.7224   -0.2500    0.0000 C.2     1  UNL1       -0.0692
     19 C          17.5885    0.2500    0.0000 C.2     1  UNL1       -0.0987
     20 H          11.1278   -0.7249    0.0000 H       1  UNL1        0.0265
     21 H          11.9248   -0.7249    0.0000 H       1  UNL1        0.0265
     22 H          11.0588    0.7249    0.0000 H       1  UNL1        0.0265
     23 H          10.2617    0.7249    0.0000 H       1  UNL1        0.0265
     24 H          12.7908    0.7249    0.0000 H       1  UNL1        0.0265
     25 H          11.9938    0.7249    0.0000 H       1  UNL1        0.0265
     26 H           9.3957   -0.7249    0.0000 H       1  UNL1        0.0268
     27 H          10.1928   -0.7249    0.0000 H       1  UNL1        0.0268
     28 H          12.8598   -0.7249    0.0000 H       1  UNL1        0.0268
     29 H          13.6569   -0.7249    0.0000 H       1  UNL1        0.0268
     30 H           9.3267    0.7249    0.0000 H       1  UNL1        0.0307
     31 H           8.5297    0.7249    0.0000 H       1  UNL1        0.0307
     32 H           4.1996   -0.7249    0.0000 H       1  UNL1        0.0265
     33 H           4.9966   -0.7249    0.0000 H       1  UNL1        0.0265
     34 H           5.8626    0.7249    0.0000 H       1  UNL1        0.0268
     35 H           5.0656    0.7249    0.0000 H       1  UNL1        0.0268
     36 H           4.1306    0.7249    0.0000 H       1  UNL1        0.0265
     37 H           3.3335    0.7249    0.0000 H       1  UNL1        0.0265
     38 H           5.9316   -0.7249    0.0000 H       1  UNL1        0.0307
     39 H           6.7287   -0.7249    0.0000 H       1  UNL1        0.0307
     40 H          14.5229    0.7249    0.0000 H       1  UNL1        0.0307
     41 H          13.7258    0.7249    0.0000 H       1  UNL1        0.0307
     42 H           8.0622   -0.8700    0.0000 H       1  UNL1        0.0569
     43 H           7.1962    0.8700    0.0000 H       1  UNL1        0.0569
     44 H           2.4675   -0.7249    0.0000 H       1  UNL1        0.0263
     45 H           3.2646   -0.7249    0.0000 H       1  UNL1        0.0263
     46 H           2.3100    0.7869    0.0000 H       1  UNL1        0.0230
     47 H           1.4631    0.5600    0.0000 H       1  UNL1        0.0230
     48 H           1.6900   -0.2869    0.0000 H       1  UNL1        0.0230
     49 H          14.9904   -0.8700    0.0000 H       1  UNL1        0.0572
     50 H          15.8564    0.8700    0.0000 H       1  UNL1        0.0614
     51 H          16.7224   -0.8700    0.0000 H       1  UNL1        0.0612
     52 H          18.1254   -0.0600    0.0000 H       1  UNL1        0.0535
     53 H          17.5885    0.8700    0.0000 H       1  UNL1        0.0535
@<TRIPOS>BOND
     1     1     2    1
     2     1     3    1
     3     1    20    1
     4     1    21    1
     5     2     4    1
     6     2    22    1
     7     2    23    1
     8     3     5    1
     9     3    24    1
    10     3    25    1
    11     4     6    1
    12     4    26    1
    13     4    27    1
    14     5    11    1
    15     5    28    1
    16     5    29    1
    17     6    12    1
    18     6    30    1
    19     6    31    1
    20     7     8    1
    21     7     9    1
    22     7    32    1
    23     7    33    1
    24     8    10    1
    25     8    34    1
    26     8    35    1
    27     9    14    1
    28     9    36    1
    29     9    37    1
    30    10    13    1
    31    10    38    1
    32    10    39    1
    33    11    16    1
    34    11    40    1
    35    11    41    1
    36    12    13    2
    37    12    42    1
    38    13    43    1
    39    14    15    1
    40    14    44    1
    41    14    45    1
    42    15    46    1
    43    15    47    1
    44    15    48    1
    45    16    17    2
    46    16    49    1
    47    17    18    1
    48    17    50    1
    49    18    19    2
    50    18    51    1
    51    19    52    1
    52    19    53    1
