@<TRIPOS>MOLECULE
IMPHY013635
 110 114 0 0 0
SMALL
GASTEIGER

@<TRIPOS>ATOM
      1 O           2.5357   -5.1481    0.0000 O.3     1  UNL1       -0.3912
      2 O          11.5367   -2.0431    0.0000 O.3     1  UNL1       -0.4566
      3 O          11.5367    0.0486    0.0000 O.3     1  UNL1       -0.4540
      4 O          10.6064   -3.5682    0.0000 O.3     1  UNL1       -0.4801
      5 O          11.4685   -3.0616    0.0000 O.2     1  UNL1       -0.2502
      6 O          12.4085   -0.5464    0.0000 O.2     1  UNL1       -0.2512
      7 O          10.6649    1.5452    0.0000 O.2     1  UNL1       -0.2456
      8 C           7.0628   -3.5958    0.0000 C.3     1  UNL1       -0.0194
      9 C           6.1968   -3.0958    0.0000 C.3     1  UNL1       -0.0257
     10 C           5.2868   -3.6026    0.0000 C.3     1  UNL1       -0.0250
     11 C           7.9288   -3.0958    0.0000 C.3     1  UNL1       -0.0051
     12 C           5.2787   -4.6442    0.0000 C.3     1  UNL1       -0.0278
     13 C           7.0789   -4.6373    0.0000 C.3     1  UNL1       -0.0463
     14 C           7.9288   -2.0958    0.0000 C.2     1  UNL1       -0.0627
     15 C           6.1808   -5.1650    0.0000 C.3     1  UNL1       -0.0486
     16 C           4.3433   -5.1940    0.0000 C.3     1  UNL1       -0.0056
     17 C           8.8228   -1.5611    0.0000 C.3     1  UNL1        0.0006
     18 C           6.1968   -2.0958    0.0000 C.3     1  UNL1       -0.0306
     19 C           9.7288   -2.0750    0.0000 C.3     1  UNL1        0.1142
     20 C           8.8228   -3.6304    0.0000 C.3     1  UNL1       -0.0423
     21 C           4.3599   -3.0386    0.0000 C.3     1  UNL1       -0.0447
     22 C           9.7288   -3.1166    0.0000 C.3     1  UNL1       -0.0323
     23 C           7.7056   -4.3618    0.0000 C.3     1  UNL1       -0.0585
     24 C           7.0628   -1.5958    0.0000 C.2     1  UNL1       -0.0836
     25 C           3.4037   -4.6515    0.0000 C.3     1  UNL1        0.0606
     26 C           5.2945   -2.6027    0.0000 C.3     1  UNL1       -0.0590
     27 C           3.4120   -3.5665    0.0000 C.3     1  UNL1       -0.0258
     28 C           8.2709   -4.0354    0.0000 C.3     1  UNL1       -0.0553
     29 C           8.7977   -0.4764    0.0000 C.3     1  UNL1       -0.0367
     30 C          10.6726   -1.5397    0.0000 C.3     1  UNL1        0.1564
     31 C           9.7288    0.0805    0.0000 C.3     1  UNL1        0.0063
     32 C          10.6726   -0.4547    0.0000 C.3     1  UNL1        0.1462
     33 C           3.8467   -6.0619    0.0000 C.3     1  UNL1       -0.0572
     34 C           4.8466   -6.0580    0.0000 C.3     1  UNL1       -0.0572
     35 C          10.5987   -2.5683    0.0000 C.2     1  UNL1        0.3152
     36 C           9.2188    0.9407    0.0000 C.3     1  UNL1       -0.0563
     37 C          10.2188    0.9522    0.0000 C.3     1  UNL1       -0.0563
     38 C          12.4047   -1.5464    0.0000 C.2     1  UNL1        0.3044
     39 C          11.5329    1.0486    0.0000 C.2     1  UNL1        0.3323
     40 C          13.2687   -2.0497    0.0000 C.3     1  UNL1        0.0332
     41 C          12.3969    1.5519    0.0000 C.2     1  UNL1        0.0225
     42 C          12.3931    2.5519    0.0000 C.2     1  UNL1       -0.0553
     43 C          13.2572    3.0552    0.0000 C.2     1  UNL1       -0.0652
     44 C          13.2533    4.0552    0.0000 C.2     1  UNL1       -0.0812
     45 C          14.1174    4.5586    0.0000 C.3     1  UNL1       -0.0257
     46 C          14.1136    5.5586    0.0000 C.3     1  UNL1       -0.0499
     47 C          14.9854    4.0619    0.0000 C.3     1  UNL1       -0.0590
     48 C          14.9777    6.0619    0.0000 C.3     1  UNL1       -0.0648
     49 H           6.9329   -2.6708    0.0000 H       1  UNL1        0.0315
     50 H           5.2820   -5.4942    0.0000 H       1  UNL1        0.0312
     51 H           7.2969   -5.2177    0.0000 H       1  UNL1        0.0271
     52 H           7.6880   -4.5218    0.0000 H       1  UNL1        0.0271
     53 H           5.7835   -5.6410    0.0000 H       1  UNL1        0.0268
     54 H           6.5818   -5.6379    0.0000 H       1  UNL1        0.0268
     55 H           9.5522   -1.1248    0.0000 H       1  UNL1        0.0358
     56 H           5.9847   -1.5132    0.0000 H       1  UNL1        0.0310
     57 H           5.5862   -2.2034    0.0000 H       1  UNL1        0.0310
     58 H           8.4182   -4.1002    0.0000 H       1  UNL1        0.0274
     59 H           9.2164   -4.1095    0.0000 H       1  UNL1        0.0274
     60 H           4.7681   -2.5719    0.0000 H       1  UNL1        0.0271
     61 H           3.9700   -2.5565    0.0000 H       1  UNL1        0.0271
     62 H           9.9379   -3.7003    0.0000 H       1  UNL1        0.0277
     63 H          10.3397   -3.0105    0.0000 H       1  UNL1        0.0277
     64 H           7.2306   -4.7604    0.0000 H       1  UNL1        0.0235
     65 H           8.1041   -4.8368    0.0000 H       1  UNL1        0.0235
     66 H           8.1805   -3.9633    0.0000 H       1  UNL1        0.0235
     67 H           7.0628   -0.9758    0.0000 H       1  UNL1        0.0572
     68 H           2.8686   -4.3384    0.0000 H       1  UNL1        0.0599
     69 H           5.9145   -2.6074    0.0000 H       1  UNL1        0.0235
     70 H           5.2993   -1.9827    0.0000 H       1  UNL1        0.0235
     71 H           4.6745   -2.5979    0.0000 H       1  UNL1        0.0235
     72 H           3.2075   -2.9812    0.0000 H       1  UNL1        0.0290
     73 H           2.8004   -3.6679    0.0000 H       1  UNL1        0.0290
     74 H           7.6884   -4.2476    0.0000 H       1  UNL1        0.0238
     75 H           8.4830   -4.6180    0.0000 H       1  UNL1        0.0238
     76 H           8.8535   -3.8233    0.0000 H       1  UNL1        0.0238
     77 H           8.5752    0.1023    0.0000 H       1  UNL1        0.0278
     78 H           8.1894   -0.5966    0.0000 H       1  UNL1        0.0278
     79 H          11.2101   -1.2308    0.0000 H       1  UNL1        0.0783
     80 H          11.2101   -0.7637    0.0000 H       1  UNL1        0.0777
     81 H           3.3085   -5.7540    0.0000 H       1  UNL1        0.0236
     82 H           3.5387   -6.6000    0.0000 H       1  UNL1        0.0236
     83 H           4.3848   -6.3698    0.0000 H       1  UNL1        0.0236
     84 H           4.3109   -6.3701    0.0000 H       1  UNL1        0.0236
     85 H           5.1587   -6.5938    0.0000 H       1  UNL1        0.0236
     86 H           5.3824   -5.7460    0.0000 H       1  UNL1        0.0236
     87 H           9.7522    1.2569    0.0000 H       1  UNL1        0.0236
     88 H           8.9027    1.4740    0.0000 H       1  UNL1        0.0236
     89 H           8.6855    0.6245    0.0000 H       1  UNL1        0.0236
     90 H          10.7593    0.6485    0.0000 H       1  UNL1        0.0236
     91 H          10.5226    1.4927    0.0000 H       1  UNL1        0.0236
     92 H           9.6783    1.2560    0.0000 H       1  UNL1        0.0236
     93 H           2.0000   -4.8360    0.0000 H       1  UNL1        0.2098
     94 H          11.1457   -3.8741    0.0000 H       1  UNL1        0.2951
     95 H          12.9567   -2.5855    0.0000 H       1  UNL1        0.0342
     96 H          13.8045   -2.3618    0.0000 H       1  UNL1        0.0342
     97 H          13.5808   -1.5140    0.0000 H       1  UNL1        0.0342
     98 H          12.9351    1.2440    0.0000 H       1  UNL1        0.0689
     99 H          11.8550    2.8598    0.0000 H       1  UNL1        0.0620
    100 H          13.7953    2.7473    0.0000 H       1  UNL1        0.0615
    101 H          12.7152    4.3632    0.0000 H       1  UNL1        0.0575
    102 H          14.1198    3.9386    0.0000 H       1  UNL1        0.0340
    103 H          13.8993    6.1404    0.0000 H       1  UNL1        0.0268
    104 H          13.5034    5.4486    0.0000 H       1  UNL1        0.0268
    105 H          14.6774    3.5238    0.0000 H       1  UNL1        0.0235
    106 H          15.5235    3.7540    0.0000 H       1  UNL1        0.0235
    107 H          15.2933    4.6000    0.0000 H       1  UNL1        0.0235
    108 H          15.2897    5.5262    0.0000 H       1  UNL1        0.0230
    109 H          15.5134    6.3740    0.0000 H       1  UNL1        0.0230
    110 H          14.6656    6.5976    0.0000 H       1  UNL1        0.0230
@<TRIPOS>BOND
     1    25     1    1
     2     1    93    1
     3    30     2    1
     4     2    38    1
     5    32     3    1
     6     3    39    1
     7     4    35    1
     8     4    94    1
     9     5    35    2
    10     6    38    2
    11     7    39    2
    12     8     9    1
    13     8    11    1
    14     8    13    1
    15     8    23    1
    16     9    10    1
    17     9    18    1
    18     9    49    1
    19    10    12    1
    20    10    21    1
    21    10    26    1
    22    11    14    1
    23    11    20    1
    24    11    28    1
    25    12    15    1
    26    12    16    1
    27    12    50    1
    28    13    15    1
    29    13    51    1
    30    13    52    1
    31    14    17    1
    32    14    24    2
    33    15    53    1
    34    15    54    1
    35    16    25    1
    36    16    33    1
    37    16    34    1
    38    17    19    1
    39    17    29    1
    40    17    55    1
    41    18    24    1
    42    18    56    1
    43    18    57    1
    44    19    22    1
    45    19    30    1
    46    19    35    1
    47    20    22    1
    48    20    58    1
    49    20    59    1
    50    21    27    1
    51    21    60    1
    52    21    61    1
    53    22    62    1
    54    22    63    1
    55    23    64    1
    56    23    65    1
    57    23    66    1
    58    24    67    1
    59    25    27    1
    60    25    68    1
    61    26    69    1
    62    26    70    1
    63    26    71    1
    64    27    72    1
    65    27    73    1
    66    28    74    1
    67    28    75    1
    68    28    76    1
    69    29    31    1
    70    29    77    1
    71    29    78    1
    72    30    32    1
    73    30    79    1
    74    31    32    1
    75    31    36    1
    76    31    37    1
    77    32    80    1
    78    33    81    1
    79    33    82    1
    80    33    83    1
    81    34    84    1
    82    34    85    1
    83    34    86    1
    84    36    87    1
    85    36    88    1
    86    36    89    1
    87    37    90    1
    88    37    91    1
    89    37    92    1
    90    38    40    1
    91    39    41    1
    92    40    95    1
    93    40    96    1
    94    40    97    1
    95    41    42    2
    96    41    98    1
    97    42    43    1
    98    42    99    1
    99    43    44    2
   100    43   100    1
   101    44    45    1
   102    44   101    1
   103    45    46    1
   104    45    47    1
   105    45   102    1
   106    46    48    1
   107    46   103    1
   108    46   104    1
   109    47   105    1
   110    47   106    1
   111    47   107    1
   112    48   108    1
   113    48   109    1
   114    48   110    1
