@<TRIPOS>MOLECULE
IMPHY014616
 35 36 0 0 0
SMALL
GASTEIGER

@<TRIPOS>ATOM
      1 O           6.3301   -2.4050    0.0000 O.3     1  UNL1       -0.5068
      2 O           2.8660   -2.4050    0.0000 O.3     1  UNL1       -0.5068
      3 C           4.5981    1.5950    0.0000 C.3     1  UNL1       -0.0159
      4 C           6.3301    0.5950    0.0000 C.ar    1  UNL1       -0.0251
      5 C           2.8660    0.5950    0.0000 C.ar    1  UNL1       -0.0251
      6 C           5.4641    2.0950    0.0000 C.2     1  UNL1       -0.0797
      7 C           3.7320    2.0950    0.0000 C.2     1  UNL1       -0.0797
      8 C           6.3301    1.5950    0.0000 C.2     1  UNL1       -0.0582
      9 C           2.8660    1.5950    0.0000 C.2     1  UNL1       -0.0582
     10 C           7.1962    0.0950    0.0000 C.ar    1  UNL1       -0.0512
     11 C           3.7320    0.0950    0.0000 C.ar    1  UNL1       -0.0512
     12 C           5.4641    0.0950    0.0000 C.ar    1  UNL1       -0.0512
     13 C           2.0000    0.0950    0.0000 C.ar    1  UNL1       -0.0512
     14 C           7.1962   -0.9050    0.0000 C.ar    1  UNL1       -0.0196
     15 C           3.7320   -0.9050    0.0000 C.ar    1  UNL1       -0.0196
     16 C           5.4641   -0.9050    0.0000 C.ar    1  UNL1       -0.0196
     17 C           2.0000   -0.9050    0.0000 C.ar    1  UNL1       -0.0196
     18 C           6.3301   -1.4050    0.0000 C.ar    1  UNL1        0.1169
     19 C           2.8660   -1.4050    0.0000 C.ar    1  UNL1        0.1169
     20 H           4.1996    1.1200    0.0000 H       1  UNL1        0.0350
     21 H           4.9966    1.1200    0.0000 H       1  UNL1        0.0350
     22 H           5.4641    2.7150    0.0000 H       1  UNL1        0.0575
     23 H           3.7320    2.7150    0.0000 H       1  UNL1        0.0575
     24 H           6.8671    1.9050    0.0000 H       1  UNL1        0.0620
     25 H           2.3291    1.9050    0.0000 H       1  UNL1        0.0620
     26 H           7.7331    0.4050    0.0000 H       1  UNL1        0.0625
     27 H           4.2690    0.4050    0.0000 H       1  UNL1        0.0625
     28 H           4.9272    0.4050    0.0000 H       1  UNL1        0.0625
     29 H           1.4631    0.4050    0.0000 H       1  UNL1        0.0625
     30 H           7.7331   -1.2150    0.0000 H       1  UNL1        0.0654
     31 H           4.2690   -1.2150    0.0000 H       1  UNL1        0.0654
     32 H           4.9272   -1.2150    0.0000 H       1  UNL1        0.0654
     33 H           1.4631   -1.2150    0.0000 H       1  UNL1        0.0654
     34 H           6.8671   -2.7150    0.0000 H       1  UNL1        0.2921
     35 H           2.3291   -2.7150    0.0000 H       1  UNL1        0.2921
@<TRIPOS>BOND
     1     1    18    1
     2     1    34    1
     3     2    19    1
     4     2    35    1
     5     3     6    1
     6     3     7    1
     7     3    20    1
     8     3    21    1
     9     4     8    1
    10     4    10   ar
    11     4    12   ar
    12     5     9    1
    13     5    11   ar
    14     5    13   ar
    15     6     8    2
    16     6    22    1
    17     7     9    2
    18     7    23    1
    19     8    24    1
    20     9    25    1
    21    10    14   ar
    22    10    26    1
    23    11    15   ar
    24    11    27    1
    25    12    16   ar
    26    12    28    1
    27    13    17   ar
    28    13    29    1
    29    14    18   ar
    30    14    30    1
    31    15    19   ar
    32    15    31    1
    33    16    18   ar
    34    16    32    1
    35    17    19   ar
    36    17    33    1
