@<TRIPOS>MOLECULE
IMPHY011657
 39 38 0 0 0
SMALL
GASTEIGER

@<TRIPOS>ATOM
      1 C           4.5981    0.4400    0.0000 C.3     1  UNL1       -0.0286
      2 C           4.5981    1.4400    0.0000 C.2     1  UNL1       -0.0762
      3 C           3.7320   -0.0600    0.0000 C.3     1  UNL1       -0.0308
      4 C           6.3301    1.4400    0.0000 C.3     1  UNL1       -0.0305
      5 C           5.4641    1.9400    0.0000 C.2     1  UNL1       -0.0847
      6 C           7.1962    1.9400    0.0000 C.3     1  UNL1       -0.0248
      7 C           3.7320   -1.0600    0.0000 C.2     1  UNL1       -0.0850
      8 C           3.7320    1.9400    0.0000 C.3     1  UNL1       -0.0438
      9 C           2.8660   -1.5600    0.0000 C.2     1  UNL1       -0.0796
     10 C           8.0622    1.4400    0.0000 C.2     1  UNL1       -0.0547
     11 C           2.8660   -2.5600    0.0000 C.3     1  UNL1       -0.0440
     12 C           2.0000   -1.0600    0.0000 C.3     1  UNL1       -0.0440
     13 C           8.9282    1.9400    0.0000 C.2     1  UNL1       -0.0662
     14 C           8.0622    0.4400    0.0000 C.2     1  UNL1       -0.0955
     15 C           9.7942    1.4400    0.0000 C.2     1  UNL1       -0.0985
     16 H           4.8101   -0.1426    0.0000 H       1  UNL1        0.0313
     17 H           5.2087    0.5477    0.0000 H       1  UNL1        0.0313
     18 H           3.5200    0.5226    0.0000 H       1  UNL1        0.0310
     19 H           3.1215   -0.1677    0.0000 H       1  UNL1        0.0310
     20 H           5.9316    0.9651    0.0000 H       1  UNL1        0.0311
     21 H           6.7287    0.9651    0.0000 H       1  UNL1        0.0311
     22 H           5.4641    2.5600    0.0000 H       1  UNL1        0.0572
     23 H           7.5947    2.4150    0.0000 H       1  UNL1        0.0316
     24 H           6.7976    2.4150    0.0000 H       1  UNL1        0.0316
     25 H           4.2690   -1.3700    0.0000 H       1  UNL1        0.0572
     26 H           4.0420    2.4769    0.0000 H       1  UNL1        0.0274
     27 H           3.1951    2.2500    0.0000 H       1  UNL1        0.0274
     28 H           3.4220    1.4031    0.0000 H       1  UNL1        0.0274
     29 H           2.2460   -2.5600    0.0000 H       1  UNL1        0.0274
     30 H           2.8660   -3.1800    0.0000 H       1  UNL1        0.0274
     31 H           3.4860   -2.5600    0.0000 H       1  UNL1        0.0274
     32 H           2.3100   -0.5231    0.0000 H       1  UNL1        0.0274
     33 H           1.4631   -0.7500    0.0000 H       1  UNL1        0.0274
     34 H           1.6900   -1.5969    0.0000 H       1  UNL1        0.0274
     35 H           8.9282    2.5600    0.0000 H       1  UNL1        0.0614
     36 H           7.5252    0.1300    0.0000 H       1  UNL1        0.0537
     37 H           8.5991    0.1300    0.0000 H       1  UNL1        0.0537
     38 H           9.7942    0.8200    0.0000 H       1  UNL1        0.0535
     39 H          10.3312    1.7500    0.0000 H       1  UNL1        0.0535
@<TRIPOS>BOND
     1     1     2    1
     2     1     3    1
     3     1    16    1
     4     1    17    1
     5     2     5    2
     6     2     8    1
     7     3     7    1
     8     3    18    1
     9     3    19    1
    10     4     5    1
    11     4     6    1
    12     4    20    1
    13     4    21    1
    14     5    22    1
    15     6    10    1
    16     6    23    1
    17     6    24    1
    18     7     9    2
    19     7    25    1
    20     8    26    1
    21     8    27    1
    22     8    28    1
    23     9    11    1
    24     9    12    1
    25    10    13    1
    26    10    14    2
    27    11    29    1
    28    11    30    1
    29    11    31    1
    30    12    32    1
    31    12    33    1
    32    12    34    1
    33    13    15    2
    34    13    35    1
    35    14    36    1
    36    14    37    1
    37    15    38    1
    38    15    39    1
