@<TRIPOS>MOLECULE
IMPHY003426
 12 11 0 0 0
SMALL
GASTEIGER

@<TRIPOS>ATOM
      1 S           2.8660    0.0000    0.0000 S.O2    1  UNL1        0.0169
      2 S           3.7320    0.5000    0.0000 S.3     1  UNL1       -0.0076
      3 O           2.3660    0.8660    0.0000 O.2     1  UNL1       -0.1635
      4 O           3.3660   -0.8660    0.0000 O.2     1  UNL1       -0.1635
      5 C           2.0000   -0.5000    0.0000 C.3     1  UNL1        0.0657
      6 C           4.5981    0.0000    0.0000 C.3     1  UNL1        0.0030
      7 H           1.6900    0.0369    0.0000 H       1  UNL1        0.0474
      8 H           1.4631   -0.8100    0.0000 H       1  UNL1        0.0474
      9 H           2.3100   -1.0369    0.0000 H       1  UNL1        0.0474
     10 H           4.2881   -0.5369    0.0000 H       1  UNL1        0.0356
     11 H           5.1350   -0.3100    0.0000 H       1  UNL1        0.0356
     12 H           4.9081    0.5369    0.0000 H       1  UNL1        0.0356
@<TRIPOS>BOND
     1     1     2    1
     2     1     3    2
     3     1     4    2
     4     1     5    1
     5     2     6    1
     6     5     7    1
     7     5     8    1
     8     5     9    1
     9     6    10    1
    10     6    11    1
    11     6    12    1
