@<TRIPOS>MOLECULE
IMPHY016340
 42 42 0 0 0
SMALL
GASTEIGER

@<TRIPOS>ATOM
      1 O          11.5263   -0.6900    0.0000 O.3     1  UNL1       -0.3513
      2 O           9.7942   -0.6900    0.0000 O.3     1  UNL1       -0.3473
      3 O           2.0000   -0.1900    0.0000 O.2     1  UNL1       -0.2961
      4 C          10.6603    0.8100    0.0000 C.3     1  UNL1       -0.0015
      5 C          11.5263    1.3100    0.0000 C.3     1  UNL1       -0.0464
      6 C          10.6603   -0.1900    0.0000 C.3     1  UNL1        0.1595
      7 C          12.3923    0.8100    0.0000 C.3     1  UNL1       -0.0292
      8 C          12.3923   -0.1900    0.0000 C.3     1  UNL1        0.0507
      9 C           8.9282   -0.1900    0.0000 C.3     1  UNL1        0.0691
     10 C           7.1962   -0.1900    0.0000 C.2     1  UNL1       -0.0741
     11 C           6.3301   -0.6900    0.0000 C.3     1  UNL1       -0.0285
     12 C           8.0622   -0.6900    0.0000 C.2     1  UNL1       -0.0596
     13 C           5.4641   -0.1900    0.0000 C.3     1  UNL1       -0.0304
     14 C           7.1962    0.8100    0.0000 C.3     1  UNL1       -0.0437
     15 C           4.5981   -0.6900    0.0000 C.2     1  UNL1       -0.0778
     16 C           3.7320   -0.1900    0.0000 C.2     1  UNL1       -0.0152
     17 C           3.7320    0.8100    0.0000 C.3     1  UNL1       -0.0370
     18 C           2.8660   -0.6900    0.0000 C.2     1  UNL1        0.1457
     19 H          10.4482    1.3926    0.0000 H       1  UNL1        0.0314
     20 H          10.0497    0.7023    0.0000 H       1  UNL1        0.0314
     21 H          11.9248    1.7850    0.0000 H       1  UNL1        0.0268
     22 H          11.1278    1.7850    0.0000 H       1  UNL1        0.0268
     23 H          10.6603   -0.8100    0.0000 H       1  UNL1        0.0909
     24 H          13.0029    0.7023    0.0000 H       1  UNL1        0.0287
     25 H          12.6044    1.3926    0.0000 H       1  UNL1        0.0287
     26 H          12.6044   -0.7726    0.0000 H       1  UNL1        0.0561
     27 H          13.0029   -0.0823    0.0000 H       1  UNL1        0.0561
     28 H           9.3267    0.2849    0.0000 H       1  UNL1        0.0605
     29 H           8.5297    0.2849    0.0000 H       1  UNL1        0.0605
     30 H           5.9316   -1.1650    0.0000 H       1  UNL1        0.0313
     31 H           6.7287   -1.1650    0.0000 H       1  UNL1        0.0313
     32 H           8.0622   -1.3100    0.0000 H       1  UNL1        0.0594
     33 H           5.8626    0.2849    0.0000 H       1  UNL1        0.0311
     34 H           5.0656    0.2849    0.0000 H       1  UNL1        0.0311
     35 H           7.8162    0.8100    0.0000 H       1  UNL1        0.0274
     36 H           7.1962    1.4300    0.0000 H       1  UNL1        0.0274
     37 H           6.5762    0.8100    0.0000 H       1  UNL1        0.0274
     38 H           4.5981   -1.3100    0.0000 H       1  UNL1        0.0576
     39 H           4.3520    0.8100    0.0000 H       1  UNL1        0.0278
     40 H           3.7320    1.4300    0.0000 H       1  UNL1        0.0278
     41 H           3.1120    0.8100    0.0000 H       1  UNL1        0.0278
     42 H           2.8660   -1.3100    0.0000 H       1  UNL1        0.1078
@<TRIPOS>BOND
     1     1     6    1
     2     1     8    1
     3     2     6    1
     4     2     9    1
     5     3    18    2
     6     4     5    1
     7     4     6    1
     8     4    19    1
     9     4    20    1
    10     5     7    1
    11     5    21    1
    12     5    22    1
    13     6    23    1
    14     7     8    1
    15     7    24    1
    16     7    25    1
    17     8    26    1
    18     8    27    1
    19     9    12    1
    20     9    28    1
    21     9    29    1
    22    10    11    1
    23    10    12    2
    24    10    14    1
    25    11    13    1
    26    11    30    1
    27    11    31    1
    28    12    32    1
    29    13    15    1
    30    13    33    1
    31    13    34    1
    32    14    35    1
    33    14    36    1
    34    14    37    1
    35    15    16    2
    36    15    38    1
    37    16    17    1
    38    16    18    1
    39    17    39    1
    40    17    40    1
    41    17    41    1
    42    18    42    1
