@<TRIPOS>MOLECULE
IMPHY017795
 18 18 0 0 0
SMALL
GASTEIGER

@<TRIPOS>ATOM
      1 O           2.6166    0.5186    0.0000 O.3     1  UNL1       -0.3765
      2 C           3.2044   -0.2904    0.0000 C.3     1  UNL1        0.1261
      3 C           2.3954   -0.8782    0.0000 C.3     1  UNL1       -0.0127
      4 C           4.0134   -0.8782    0.0000 C.3     1  UNL1       -0.0127
      5 C           2.7044   -1.8292    0.0000 C.3     1  UNL1       -0.0494
      6 C           3.7044   -1.8292    0.0000 C.3     1  UNL1       -0.0494
      7 C           3.7922    0.5186    0.0000 C.1     1  UNL1       -0.0710
      8 C           4.3800    1.3276    0.0000 C.1     1  UNL1       -0.1163
      9 H           2.0854   -0.3412    0.0000 H       1  UNL1        0.0303
     10 H           1.8290   -1.1304    0.0000 H       1  UNL1        0.0303
     11 H           4.5798   -1.1304    0.0000 H       1  UNL1        0.0303
     12 H           4.3234   -0.3412    0.0000 H       1  UNL1        0.0303
     13 H           2.0979   -1.9581    0.0000 H       1  UNL1        0.0266
     14 H           2.7692   -2.4458    0.0000 H       1  UNL1        0.0266
     15 H           3.6396   -2.4458    0.0000 H       1  UNL1        0.0266
     16 H           4.3108   -1.9581    0.0000 H       1  UNL1        0.0266
     17 H           2.0000    0.4538    0.0000 H       1  UNL1        0.2114
     18 H           4.7444    1.8292    0.0000 H       1  UNL1        0.1229
@<TRIPOS>BOND
     1     1     2    1
     2     1    17    1
     3     2     3    1
     4     2     4    1
     5     2     7    1
     6     3     5    1
     7     3     9    1
     8     3    10    1
     9     4     6    1
    10     4    11    1
    11     4    12    1
    12     5     6    1
    13     5    13    1
    14     5    14    1
    15     6    15    1
    16     6    16    1
    17     7     8    3
    18     8    18    1
