@<TRIPOS>MOLECULE
IMPHY011335
 46 49 0 0 0
SMALL
GASTEIGER

@<TRIPOS>ATOM
      1 O           7.2342   -1.2422    0.0000 O.3     1  UNL1       -0.4732
      2 O           7.2342    0.8271    0.0000 O.3     1  UNL1       -0.4754
      3 O           5.4679    1.8166    0.0000 O.3     1  UNL1       -0.3912
      4 O           8.9781    1.8340    0.0000 O.2     1  UNL1       -0.4183
      5 O           8.9942   -2.2076    0.0000 O.3     1  UNL1       -0.4913
      6 O           2.8641   -0.7417    0.0000 O.3     1  UNL1       -0.4914
      7 O           2.8718   -2.7417    0.0000 O.3     1  UNL1       -0.5033
      8 O           9.8723    3.3617    0.0000 O.2     1  UNL1       -0.2452
      9 C           6.3282   -0.7284    0.0000 C.3     1  UNL1        0.1643
     10 C           6.3282    0.3133    0.0000 C.3     1  UNL1        0.1641
     11 C           5.4641   -1.2317    0.0000 C.ar    1  UNL1       -0.0000
     12 C           8.1282    0.2924    0.0000 C.ar    1  UNL1        0.2093
     13 C           8.1282   -0.7076    0.0000 C.ar    1  UNL1        0.2083
     14 C           5.4641    0.8166    0.0000 C.3     1  UNL1        0.0850
     15 C           8.9942    0.7924    0.0000 C.ar    1  UNL1        0.1844
     16 C           8.9942   -1.2075    0.0000 C.ar    1  UNL1        0.1660
     17 C           9.8602    0.2924    0.0000 C.ar    1  UNL1        0.0250
     18 C           4.5961   -0.7350    0.0000 C.ar    1  UNL1       -0.0095
     19 C           5.4679   -2.2317    0.0000 C.ar    1  UNL1       -0.0513
     20 C           9.8602   -0.7076    0.0000 C.ar    1  UNL1       -0.0054
     21 C           3.7320   -1.2384    0.0000 C.ar    1  UNL1        0.1616
     22 C           4.6038   -2.7350    0.0000 C.ar    1  UNL1       -0.0161
     23 C          10.7702    0.7993    0.0000 C.ar    1  UNL1       -0.0441
     24 C           3.7359   -2.2384    0.0000 C.ar    1  UNL1        0.1585
     25 C          10.7783    1.8409    0.0000 C.ar    1  UNL1        0.0236
     26 C           9.8762    2.3617    0.0000 C.ar    1  UNL1        0.3373
     27 C           9.8602   -2.7076    0.0000 C.3     1  UNL1        0.0790
     28 C           2.0000   -1.2450    0.0000 C.3     1  UNL1        0.0790
     29 H           5.7906   -0.4194    0.0000 H       1  UNL1        0.0823
     30 H           6.3318    0.9333    0.0000 H       1  UNL1        0.0798
     31 H           4.8539    0.9266    0.0000 H       1  UNL1        0.0595
     32 H           5.2498    0.2348    0.0000 H       1  UNL1        0.0595
     33 H           4.5937   -0.1150    0.0000 H       1  UNL1        0.0659
     34 H           6.0061   -2.5396    0.0000 H       1  UNL1        0.0623
     35 H          10.3972   -1.0176    0.0000 H       1  UNL1        0.0662
     36 H           4.6062   -3.3550    0.0000 H       1  UNL1        0.0655
     37 H          11.3035    0.4831    0.0000 H       1  UNL1        0.0627
     38 H           4.9322    2.1287    0.0000 H       1  UNL1        0.2096
     39 H          11.3164    2.1488    0.0000 H       1  UNL1        0.0689
     40 H           9.5502   -3.2445    0.0000 H       1  UNL1        0.0660
     41 H          10.3972   -3.0176    0.0000 H       1  UNL1        0.0660
     42 H          10.1702   -2.1706    0.0000 H       1  UNL1        0.0660
     43 H           2.8742   -3.3617    0.0000 H       1  UNL1        0.2923
     44 H           1.6879   -0.7093    0.0000 H       1  UNL1        0.0660
     45 H           1.4643   -1.5571    0.0000 H       1  UNL1        0.0660
     46 H           2.3121   -1.7808    0.0000 H       1  UNL1        0.0660
@<TRIPOS>BOND
     1     1     9    1
     2     1    13    1
     3     2    10    1
     4     2    12    1
     5     3    14    1
     6     3    38    1
     7     4    15   ar
     8     4    26   ar
     9     5    16    1
    10     5    27    1
    11     6    21    1
    12     6    28    1
    13     7    24    1
    14     7    43    1
    15     8    26    2
    16     9    10    1
    17     9    11    1
    18     9    29    1
    19    10    14    1
    20    10    30    1
    21    11    18   ar
    22    11    19   ar
    23    12    13   ar
    24    12    15   ar
    25    13    16   ar
    26    14    31    1
    27    14    32    1
    28    15    17   ar
    29    16    20   ar
    30    17    20   ar
    31    17    23   ar
    32    18    21   ar
    33    18    33    1
    34    19    22   ar
    35    19    34    1
    36    20    35    1
    37    21    24   ar
    38    22    24   ar
    39    22    36    1
    40    23    25   ar
    41    23    37    1
    42    25    26   ar
    43    25    39    1
    44    27    40    1
    45    27    41    1
    46    27    42    1
    47    28    44    1
    48    28    45    1
    49    28    46    1
