@<TRIPOS>MOLECULE
IMPHY016335
 27 26 0 0 0
SMALL
GASTEIGER

@<TRIPOS>ATOM
      1 O           2.5369   -0.4330    0.0000 O.3     1  UNL1       -0.3851
      2 C           3.4030    0.0670    0.0000 C.3     1  UNL1        0.0788
      3 C           2.9030    0.9330    0.0000 C.3     1  UNL1       -0.0327
      4 C           3.9030   -0.7990    0.0000 C.3     1  UNL1       -0.0327
      5 C           4.2690    0.5670    0.0000 C.2     1  UNL1       -0.0534
      6 C           5.1350    0.0670    0.0000 C.2     1  UNL1       -0.0628
      7 C           6.0010    0.5670    0.0000 C.2     1  UNL1       -0.0591
      8 C           6.8671    0.0670    0.0000 C.2     1  UNL1       -0.0510
      9 C           6.8671   -0.9330    0.0000 C.3     1  UNL1       -0.0397
     10 C           7.7331    0.5670    0.0000 C.2     1  UNL1       -0.0659
     11 C           8.5991    0.0670    0.0000 C.2     1  UNL1       -0.0984
     12 H           3.4399    1.2430    0.0000 H       1  UNL1        0.0260
     13 H           2.5930    1.4700    0.0000 H       1  UNL1        0.0260
     14 H           2.3660    0.6230    0.0000 H       1  UNL1        0.0260
     15 H           3.3660   -1.1090    0.0000 H       1  UNL1        0.0260
     16 H           4.2130   -1.3360    0.0000 H       1  UNL1        0.0260
     17 H           4.4399   -0.4890    0.0000 H       1  UNL1        0.0260
     18 H           4.2690    1.1870    0.0000 H       1  UNL1        0.0600
     19 H           5.1350   -0.5530    0.0000 H       1  UNL1        0.0615
     20 H           2.0000   -0.1230    0.0000 H       1  UNL1        0.2106
     21 H           6.0010    1.1870    0.0000 H       1  UNL1        0.0620
     22 H           6.2471   -0.9330    0.0000 H       1  UNL1        0.0278
     23 H           6.8671   -1.5530    0.0000 H       1  UNL1        0.0278
     24 H           7.4871   -0.9330    0.0000 H       1  UNL1        0.0278
     25 H           7.7331    1.1870    0.0000 H       1  UNL1        0.0614
     26 H           8.5991   -0.5530    0.0000 H       1  UNL1        0.0535
     27 H           9.1360    0.3770    0.0000 H       1  UNL1        0.0535
@<TRIPOS>BOND
     1     1     2    1
     2     1    20    1
     3     2     3    1
     4     2     4    1
     5     2     5    1
     6     3    12    1
     7     3    13    1
     8     3    14    1
     9     4    15    1
    10     4    16    1
    11     4    17    1
    12     5     6    2
    13     5    18    1
    14     6     7    1
    15     6    19    1
    16     7     8    2
    17     7    21    1
    18     8     9    1
    19     8    10    1
    20     9    22    1
    21     9    23    1
    22     9    24    1
    23    10    11    2
    24    10    25    1
    25    11    26    1
    26    11    27    1
