@<TRIPOS>MOLECULE
IMPHY008036
 24 26 0 0 0
SMALL
GASTEIGER

@<TRIPOS>ATOM
      1 O           2.5836   -1.5894    0.0000 O.2     1  UNL1       -0.4627
      2 O           4.3798    1.2569    0.0000 O.2     1  UNL1       -0.4213
      3 O           6.1279   -1.7846    0.0000 O.3     1  UNL1       -0.4943
      4 O           5.2740    2.7846    0.0000 O.2     1  UNL1       -0.2452
      5 C           3.5298   -0.2846    0.0000 C.ar    1  UNL1        0.0633
      6 C           4.3958    0.2154    0.0000 C.ar    1  UNL1        0.1533
      7 C           5.2619   -0.2846    0.0000 C.ar    1  UNL1        0.0600
      8 C           3.5298   -1.2846    0.0000 C.ar    1  UNL1        0.1418
      9 C           5.2619   -1.2846    0.0000 C.ar    1  UNL1        0.1343
     10 C           4.3958   -1.7846    0.0000 C.ar    1  UNL1        0.0238
     11 C           2.5836    0.0201    0.0000 C.ar    1  UNL1       -0.0126
     12 C           6.1719    0.2222    0.0000 C.ar    1  UNL1       -0.0408
     13 C           2.0000   -0.7846    0.0000 C.ar    1  UNL1        0.0933
     14 C           6.1799    1.2638    0.0000 C.ar    1  UNL1        0.0237
     15 C           5.2778    1.7846    0.0000 C.ar    1  UNL1        0.3372
     16 C           6.1279   -2.7846    0.0000 C.3     1  UNL1        0.0788
     17 H           4.3958   -2.4046    0.0000 H       1  UNL1        0.0691
     18 H           2.3910    0.6094    0.0000 H       1  UNL1        0.0656
     19 H           6.7052   -0.0940    0.0000 H       1  UNL1        0.0628
     20 H           1.3800   -0.7846    0.0000 H       1  UNL1        0.1030
     21 H           6.7180    1.5718    0.0000 H       1  UNL1        0.0689
     22 H           5.5079   -2.7846    0.0000 H       1  UNL1        0.0660
     23 H           6.1279   -3.4046    0.0000 H       1  UNL1        0.0660
     24 H           6.7479   -2.7846    0.0000 H       1  UNL1        0.0660
@<TRIPOS>BOND
     1     1     8   ar
     2     1    13   ar
     3     2     6   ar
     4     2    15   ar
     5     3     9    1
     6     3    16    1
     7     4    15    2
     8     5     6   ar
     9     5     8   ar
    10     5    11   ar
    11     6     7   ar
    12     7     9   ar
    13     7    12   ar
    14     8    10   ar
    15     9    10   ar
    16    10    17    1
    17    11    13   ar
    18    11    18    1
    19    12    14   ar
    20    12    19    1
    21    13    20    1
    22    14    15   ar
    23    14    21    1
    24    16    22    1
    25    16    23    1
    26    16    24    1
