@<TRIPOS>MOLECULE
IMPHY007216
 10 10 0 0 0
SMALL
GASTEIGER

@<TRIPOS>ATOM
      1 N           2.8090   -0.4594    0.0000 N.ar    1  UNL1       -0.3670
      2 C           3.6180    0.1284    0.0000 C.ar    1  UNL1        0.0016
      3 C           2.0000    0.1284    0.0000 C.ar    1  UNL1        0.0016
      4 C           3.3090    1.0794    0.0000 C.ar    1  UNL1       -0.0444
      5 C           2.3090    1.0794    0.0000 C.ar    1  UNL1       -0.0444
      6 H           2.8090   -1.0794    0.0000 H       1  UNL1        0.1648
      7 H           4.2077   -0.0632    0.0000 H       1  UNL1        0.0807
      8 H           1.4103   -0.0632    0.0000 H       1  UNL1        0.0807
      9 H           3.6734    1.5810    0.0000 H       1  UNL1        0.0632
     10 H           1.9446    1.5810    0.0000 H       1  UNL1        0.0632
@<TRIPOS>BOND
     1     1     2   ar
     2     1     3   ar
     3     1     6    1
     4     2     4   ar
     5     2     7    1
     6     3     5   ar
     7     3     8    1
     8     4     5   ar
     9     4     9    1
    10     5    10    1
