@<TRIPOS>MOLECULE
IMPHY003375
 17 17 0 0 0
SMALL
GASTEIGER

@<TRIPOS>ATOM
      1 O           5.5202   -0.1807    0.0000 O.3     1  UNL1       -0.3621
      2 O           2.0000   -0.1807    0.0000 O.2     1  UNL1       -0.2758
      3 N           3.7601   -0.4594    0.0000 N.am    1  UNL1       -0.2900
      4 C           4.2601    1.0794    0.0000 C.3     1  UNL1       -0.0016
      5 C           4.5691    0.1284    0.0000 C.3     1  UNL1        0.1246
      6 C           3.2601    1.0794    0.0000 C.3     1  UNL1        0.0279
      7 C           2.9511    0.1284    0.0000 C.2     1  UNL1        0.2150
      8 C           6.2633    0.4885    0.0000 C.3     1  UNL1        0.0387
      9 H           4.7021   -0.7112    0.0000 H       1  UNL1        0.0807
     10 H           4.8665    1.2083    0.0000 H       1  UNL1        0.0311
     11 H           4.1953    1.6960    0.0000 H       1  UNL1        0.0311
     12 H           3.3249    1.6960    0.0000 H       1  UNL1        0.0360
     13 H           2.6536    1.2083    0.0000 H       1  UNL1        0.0360
     14 H           3.7601   -1.0794    0.0000 H       1  UNL1        0.1511
     15 H           6.6782    0.0277    0.0000 H       1  UNL1        0.0524
     16 H           6.7240    0.9033    0.0000 H       1  UNL1        0.0524
     17 H           5.8484    0.9492    0.0000 H       1  UNL1        0.0524
@<TRIPOS>BOND
     1     1     5    1
     2     1     8    1
     3     2     7    2
     4     3     5    1
     5     3     7   am
     6     3    14    1
     7     4     5    1
     8     4     6    1
     9     4    10    1
    10     4    11    1
    11     5     9    1
    12     6     7    1
    13     6    12    1
    14     6    13    1
    15     8    15    1
    16     8    16    1
    17     8    17    1
