@<TRIPOS>MOLECULE
IMPHY005691
 17 17 0 0 0
SMALL
GASTEIGER

@<TRIPOS>ATOM
      1 O           4.7690    1.1645    0.0000 O.3     1  UNL1       -0.3594
      2 O           3.7690    1.1645    0.0000 O.3     1  UNL1       -0.3594
      3 O           2.5369    0.2985    0.0000 O.3     1  UNL1       -0.3821
      4 C           4.2690    0.2985    0.0000 C.3     1  UNL1        0.2154
      5 C           3.4030   -0.2015    0.0000 C.3     1  UNL1        0.1309
      6 C           5.1350   -0.2015    0.0000 C.2     1  UNL1       -0.0230
      7 C           3.4030   -1.2015    0.0000 C.2     1  UNL1       -0.0504
      8 C           5.1350   -1.2015    0.0000 C.2     1  UNL1       -0.0608
      9 C           4.2690   -1.7015    0.0000 C.2     1  UNL1       -0.0632
     10 H           3.4030    0.4185    0.0000 H       1  UNL1        0.0695
     11 H           5.6720    0.1085    0.0000 H       1  UNL1        0.0626
     12 H           2.8660   -1.5115    0.0000 H       1  UNL1        0.0599
     13 H           5.6720   -1.5115    0.0000 H       1  UNL1        0.0616
     14 H           4.2690   -2.3215    0.0000 H       1  UNL1        0.0615
     15 H           5.3890    1.1645    0.0000 H       1  UNL1        0.2132
     16 H           4.0790    1.7015    0.0000 H       1  UNL1        0.2132
     17 H           2.0000   -0.0115    0.0000 H       1  UNL1        0.2105
@<TRIPOS>BOND
     1     1     4    1
     2     1    15    1
     3     2     4    1
     4     2    16    1
     5     3     5    1
     6     3    17    1
     7     4     5    1
     8     4     6    1
     9     5     7    1
    10     5    10    1
    11     6     8    2
    12     6    11    1
    13     7     9    2
    14     7    12    1
    15     8     9    1
    16     8    13    1
    17     9    14    1
