@<TRIPOS>MOLECULE
IMPHY017650
 42 43 0 0 0
SMALL
GASTEIGER

@<TRIPOS>ATOM
      1 O           6.1123    1.8879    0.0000 O.3     1  UNL1       -0.3650
      2 C           5.4051    1.1803    0.0000 C.3     1  UNL1        0.0932
      3 C           6.3710    0.9215    0.0000 C.3     1  UNL1        0.0889
      4 C           6.8710    0.0555    0.0000 C.3     1  UNL1       -0.0153
      5 C           4.5391    0.6803    0.0000 C.3     1  UNL1       -0.0215
      6 C           6.3301   -0.7679    0.0000 C.3     1  UNL1       -0.0144
      7 C           4.4392    1.4392    0.0000 C.3     1  UNL1       -0.0334
      8 C           3.5731    0.9392    0.0000 C.3     1  UNL1       -0.0501
      9 C           2.8660    0.2321    0.0000 C.3     1  UNL1       -0.0501
     10 C           2.8660   -0.7679    0.0000 C.3     1  UNL1       -0.0405
     11 C           5.4641   -1.2679    0.0000 C.2     1  UNL1       -0.0822
     12 C           6.8117   -1.6444    0.0000 C.3     1  UNL1       -0.0563
     13 C           7.3192   -0.9155    0.0000 C.3     1  UNL1       -0.0563
     14 C           3.7320   -1.2679    0.0000 C.3     1  UNL1       -0.0322
     15 C           4.5981   -0.7679    0.0000 C.2     1  UNL1       -0.0872
     16 C           2.0000   -1.2679    0.0000 C.3     1  UNL1       -0.0621
     17 H           6.9438    1.1587    0.0000 H       1  UNL1        0.0625
     18 H           7.3303   -0.3610    0.0000 H       1  UNL1        0.0299
     19 H           7.3535    0.4448    0.0000 H       1  UNL1        0.0299
     20 H           4.2291    0.1434    0.0000 H       1  UNL1        0.0294
     21 H           4.9775    0.2419    0.0000 H       1  UNL1        0.0294
     22 H           4.5996    2.0380    0.0000 H       1  UNL1        0.0258
     23 H           3.8403    1.5996    0.0000 H       1  UNL1        0.0258
     24 H           4.2787    0.8403    0.0000 H       1  UNL1        0.0258
     25 H           3.8352    1.5011    0.0000 H       1  UNL1        0.0266
     26 H           3.0653    1.2948    0.0000 H       1  UNL1        0.0266
     27 H           2.5560    0.7690    0.0000 H       1  UNL1        0.0268
     28 H           2.2672    0.0716    0.0000 H       1  UNL1        0.0268
     29 H           2.8660   -1.3879    0.0000 H       1  UNL1        0.0301
     30 H           5.4641   -1.8879    0.0000 H       1  UNL1        0.0574
     31 H           6.2683   -1.9429    0.0000 H       1  UNL1        0.0238
     32 H           7.1102   -2.1877    0.0000 H       1  UNL1        0.0238
     33 H           7.3550   -1.3458    0.0000 H       1  UNL1        0.0238
     34 H           7.2277   -1.5287    0.0000 H       1  UNL1        0.0238
     35 H           7.9324   -1.0070    0.0000 H       1  UNL1        0.0238
     36 H           7.4107   -0.3023    0.0000 H       1  UNL1        0.0238
     37 H           3.3335   -1.7429    0.0000 H       1  UNL1        0.0310
     38 H           4.1306   -1.7429    0.0000 H       1  UNL1        0.0310
     39 H           4.5981   -0.1479    0.0000 H       1  UNL1        0.0569
     40 H           1.6900   -0.7310    0.0000 H       1  UNL1        0.0233
     41 H           1.4631   -1.5779    0.0000 H       1  UNL1        0.0233
     42 H           2.3100   -1.8049    0.0000 H       1  UNL1        0.0233
@<TRIPOS>BOND
     1     1     2    1
     2     1     3    1
     3     2     3    1
     4     2     5    1
     5     2     7    1
     6     3     4    1
     7     3    17    1
     8     4     6    1
     9     4    18    1
    10     4    19    1
    11     5     8    1
    12     5    20    1
    13     5    21    1
    14     6    11    1
    15     6    12    1
    16     6    13    1
    17     7    22    1
    18     7    23    1
    19     7    24    1
    20     8     9    1
    21     8    25    1
    22     8    26    1
    23     9    10    1
    24     9    27    1
    25     9    28    1
    26    10    14    1
    27    10    16    1
    28    10    29    1
    29    11    15    2
    30    11    30    1
    31    12    31    1
    32    12    32    1
    33    12    33    1
    34    13    34    1
    35    13    35    1
    36    13    36    1
    37    14    15    1
    38    14    37    1
    39    14    38    1
    40    15    39    1
    41    16    40    1
    42    16    41    1
    43    16    42    1
