@<TRIPOS>MOLECULE
IMPHY010710
 35 38 0 0 0
SMALL
GASTEIGER

@<TRIPOS>ATOM
      1 C           5.6997   -5.1816    0.0000 C.3     1  UNL1       -0.0002
      2 C           5.6997   -3.8862    0.0000 C.3     1  UNL1        0.0006
      3 C           2.2885   -5.7861    0.0000 C.3     1  UNL1        0.0393
      4 C           4.5771   -5.7861    0.0000 C.3     1  UNL1       -0.0040
      5 C           3.4112   -5.1816    0.0000 C.2     1  UNL1       -0.0513
      6 C           2.2885   -7.0815    0.0000 C.3     1  UNL1       -0.0136
      7 C           6.8656   -3.2385    0.0000 C.3     1  UNL1       -0.0187
      8 C           7.9883   -5.1816    0.0000 C.3     1  UNL1       -0.0003
      9 C           4.5771   -3.2385    0.0000 C.3     1  UNL1        0.0251
     10 C           3.4112   -3.8862    0.0000 C.2     1  UNL1       -0.0349
     11 C           4.5771   -7.0815    0.0000 C.3     1  UNL1       -0.0005
     12 C           3.4112   -7.7292    0.0000 C.3     1  UNL1       -0.0036
     13 C           7.9883   -3.8862    0.0000 C.3     1  UNL1       -0.0039
     14 C           1.1227   -7.7292    0.0000 C.3     1  UNL1       -0.0029
     15 C           6.8656   -1.9863    0.0000 C.3     1  UNL1       -0.0033
     16 C           1.1227   -5.1816    0.0000 C.3     1  UNL1        0.1550
     17 C           5.6997   -6.4770    0.0000 C.3     1  UNL1        0.0000
     18 C           5.6997   -2.5908    0.0000 C.3     1  UNL1        0.0000
     19 C           2.2885   -4.5339    0.0000 C.3     1  UNL1        0.0063
     20 C           0.0000   -7.0815    0.0000 C.3     1  UNL1        0.0023
     21 C           0.0000   -5.7861    0.0000 C.3     1  UNL1        0.0332
     22 C           2.0726   -8.6360    0.0000 C.3     1  UNL1       -0.0003
     23 C           0.1727   -8.6360    0.0000 C.3     1  UNL1       -0.0003
     24 C           9.1541   -1.9863    0.0000 C.3     1  UNL1        0.0220
     25 C           7.9883   -1.3386    0.0000 C.3     1  UNL1        0.0040
     26 C           5.6997   -1.3386    0.0000 C.3     1  UNL1       -0.0003
     27 C          10.2768   -1.3386    0.0000 C.2     1  UNL1       -0.0446
     28 C          11.4426   -1.9863    0.0000 C.3     1  UNL1        0.0183
     29 C          11.4426   -3.2385    0.0000 C.3     1  UNL1        0.0043
     30 C          12.6085   -1.3386    0.0000 C.3     1  UNL1        0.0043
     31 H           2.2885   -8.3769    0.0000 H       1  UNL1        0.0322
     32 H           4.5339   -4.4907    0.0000 H       1  UNL1        0.0358
     33 H           6.8656   -4.5771    0.0000 H       1  UNL1        0.0319
     34 O           1.1227   -3.8430    0.0000 O.3     1  UNL1       -0.2228
     35 C          10.2768    0.0000    0.0000 C.2     1  UNL1       -0.0091
@<TRIPOS>BOND
     1     1     8    1
     2     1    17    1
     3     1     2    1
     4     1     4    1
     5     2     7    1
     6     2     9    1
     7     2    18    1
     8     3    16    1
     9     3    19    1
    10     3     6    1
    11     3     5    1
    12     4     5    1
    13     4    11    1
    14     4    32    1
    15     5    10    2
    16     6    12    1
    17     6    14    1
    18     6    31    1
    19     7    15    1
    20     7    13    1
    21     7    33    1
    22     8    13    1
    23     9    10    1
    24    11    12    1
    25    14    20    1
    26    14    22    1
    27    14    23    1
    28    15    25    1
    29    15    26    1
    30    16    21    1
    31    16    34    1
    32    20    21    1
    33    24    25    1
    34    24    27    1
    35    27    28    1
    36    27    35    2
    37    28    29    1
    38    28    30    1
