@<TRIPOS>MOLECULE
IMPHY004914
 65 64 0 0 0
SMALL
GASTEIGER

@<TRIPOS>ATOM
      1 O          14.1244   -2.2500    0.0000 O.3     1  UNL1       -0.4619
      2 O          13.2583   -3.7500    0.0000 O.2     1  UNL1       -0.2509
      3 O          15.8564   -1.2500    0.0000 O.3     1  UNL1       -0.3861
      4 O          17.5885   -2.2500    0.0000 O.3     1  UNL1       -0.3923
      5 C           3.7320    0.7500    0.0000 C.3     1  UNL1       -0.0530
      6 C           9.7942   -2.7500    0.0000 C.3     1  UNL1       -0.0530
      7 C           8.9282   -2.2500    0.0000 C.3     1  UNL1       -0.0528
      8 C           4.5981    0.2500    0.0000 C.3     1  UNL1       -0.0528
      9 C           3.7320    1.7500    0.0000 C.3     1  UNL1       -0.0531
     10 C          10.6603   -2.2500    0.0000 C.3     1  UNL1       -0.0526
     11 C           8.0622   -2.7500    0.0000 C.3     1  UNL1       -0.0496
     12 C           4.5981   -0.7500    0.0000 C.3     1  UNL1       -0.0496
     13 C           2.8660    2.2500    0.0000 C.3     1  UNL1       -0.0533
     14 C          11.5263   -2.7500    0.0000 C.3     1  UNL1       -0.0430
     15 C           7.1962   -2.2500    0.0000 C.3     1  UNL1       -0.0348
     16 C           5.4641   -1.2500    0.0000 C.3     1  UNL1       -0.0348
     17 C           2.8660    3.2500    0.0000 C.3     1  UNL1       -0.0559
     18 C           6.3301   -2.7500    0.0000 C.2     1  UNL1       -0.0879
     19 C           5.4641   -2.2500    0.0000 C.2     1  UNL1       -0.0879
     20 C          12.3923   -2.2500    0.0000 C.3     1  UNL1        0.0449
     21 C           2.0000    3.7500    0.0000 C.3     1  UNL1       -0.0653
     22 C          13.2583   -2.7500    0.0000 C.2     1  UNL1        0.3072
     23 C          14.9904   -2.7500    0.0000 C.3     1  UNL1        0.1204
     24 C          15.8564   -2.2500    0.0000 C.3     1  UNL1        0.1121
     25 C          16.7224   -2.7500    0.0000 C.3     1  UNL1        0.0733
     26 H           3.1215    0.8577    0.0000 H       1  UNL1        0.0265
     27 H           3.5200    0.1674    0.0000 H       1  UNL1        0.0265
     28 H           9.3957   -3.2250    0.0000 H       1  UNL1        0.0265
     29 H          10.1928   -3.2250    0.0000 H       1  UNL1        0.0265
     30 H           9.3267   -1.7750    0.0000 H       1  UNL1        0.0265
     31 H           8.5297   -1.7750    0.0000 H       1  UNL1        0.0265
     32 H           5.2087    0.1423    0.0000 H       1  UNL1        0.0265
     33 H           4.8101    0.8326    0.0000 H       1  UNL1        0.0265
     34 H           4.3426    1.6423    0.0000 H       1  UNL1        0.0265
     35 H           3.9441    2.3326    0.0000 H       1  UNL1        0.0265
     36 H          11.0588   -1.7750    0.0000 H       1  UNL1        0.0265
     37 H          10.2617   -1.7750    0.0000 H       1  UNL1        0.0265
     38 H           7.6636   -3.2250    0.0000 H       1  UNL1        0.0268
     39 H           8.4607   -3.2250    0.0000 H       1  UNL1        0.0268
     40 H           3.9875   -0.6423    0.0000 H       1  UNL1        0.0268
     41 H           4.3860   -1.3326    0.0000 H       1  UNL1        0.0268
     42 H           2.2554    2.3577    0.0000 H       1  UNL1        0.0265
     43 H           2.6540    1.6674    0.0000 H       1  UNL1        0.0265
     44 H          11.1278   -3.2250    0.0000 H       1  UNL1        0.0270
     45 H          11.9248   -3.2250    0.0000 H       1  UNL1        0.0270
     46 H           7.5947   -1.7750    0.0000 H       1  UNL1        0.0307
     47 H           6.7976   -1.7750    0.0000 H       1  UNL1        0.0307
     48 H           6.0747   -1.3577    0.0000 H       1  UNL1        0.0307
     49 H           5.6762   -0.6674    0.0000 H       1  UNL1        0.0307
     50 H           3.4766    3.1423    0.0000 H       1  UNL1        0.0263
     51 H           3.0781    3.8326    0.0000 H       1  UNL1        0.0263
     52 H          12.7908   -1.7750    0.0000 H       1  UNL1        0.0377
     53 H          11.9938   -1.7750    0.0000 H       1  UNL1        0.0377
     54 H           6.3301   -3.3700    0.0000 H       1  UNL1        0.0569
     55 H           4.9272   -2.5600    0.0000 H       1  UNL1        0.0569
     56 H           2.3100    4.2869    0.0000 H       1  UNL1        0.0230
     57 H           1.4631    4.0600    0.0000 H       1  UNL1        0.0230
     58 H           1.6900    3.2131    0.0000 H       1  UNL1        0.0230
     59 H          14.5919   -3.2250    0.0000 H       1  UNL1        0.0724
     60 H          15.3889   -3.2250    0.0000 H       1  UNL1        0.0724
     61 H          16.5925   -1.8250    0.0000 H       1  UNL1        0.0650
     62 H          16.3239   -3.2250    0.0000 H       1  UNL1        0.0584
     63 H          17.1210   -3.2250    0.0000 H       1  UNL1        0.0584
     64 H          16.3933   -0.9400    0.0000 H       1  UNL1        0.2100
     65 H          18.1254   -2.5600    0.0000 H       1  UNL1        0.2095
@<TRIPOS>BOND
     1     1    22    1
     2     1    23    1
     3     2    22    2
     4     3    24    1
     5     3    64    1
     6     4    25    1
     7     4    65    1
     8     5     8    1
     9     5     9    1
    10     5    26    1
    11     5    27    1
    12     6     7    1
    13     6    10    1
    14     6    28    1
    15     6    29    1
    16     7    11    1
    17     7    30    1
    18     7    31    1
    19     8    12    1
    20     8    32    1
    21     8    33    1
    22     9    13    1
    23     9    34    1
    24     9    35    1
    25    10    14    1
    26    10    36    1
    27    10    37    1
    28    11    15    1
    29    11    38    1
    30    11    39    1
    31    12    16    1
    32    12    40    1
    33    12    41    1
    34    13    17    1
    35    13    42    1
    36    13    43    1
    37    14    20    1
    38    14    44    1
    39    14    45    1
    40    15    18    1
    41    15    46    1
    42    15    47    1
    43    16    19    1
    44    16    48    1
    45    16    49    1
    46    17    21    1
    47    17    50    1
    48    17    51    1
    49    18    19    2
    50    18    54    1
    51    19    55    1
    52    20    22    1
    53    20    52    1
    54    20    53    1
    55    21    56    1
    56    21    57    1
    57    21    58    1
    58    23    24    1
    59    23    59    1
    60    23    60    1
    61    24    25    1
    62    24    61    1
    63    25    62    1
    64    25    63    1
