@<TRIPOS>MOLECULE
IMPHY008160
 49 52 0 0 0
SMALL
GASTEIGER

@<TRIPOS>ATOM
      1 O           4.4821   -2.6306    0.0000 O.3     1  UNL1       -0.4855
      2 O           7.9156   -2.4942    0.0000 O.3     1  UNL1       -0.5064
      3 O           5.0113    2.9407    0.0000 O.3     1  UNL1       -0.5031
      4 O           2.9882    3.2616    0.0000 O.3     1  UNL1       -0.4914
      5 C           4.3434   -0.5660    0.0000 C.3     1  UNL1        0.0169
      6 C           3.4738   -1.1394    0.0000 C.3     1  UNL1       -0.0025
      7 C           3.5436   -2.1787    0.0000 C.3     1  UNL1        0.1060
      8 C           5.2443   -0.9999    0.0000 C.ar    1  UNL1        0.0055
      9 C           4.1208    0.4090    0.0000 C.ar    1  UNL1       -0.0328
     10 C           5.3382   -2.0372    0.0000 C.ar    1  UNL1        0.1316
     11 C           6.1453   -0.5660    0.0000 C.ar    1  UNL1       -0.0364
     12 C           6.3678    0.4090    0.0000 C.3     1  UNL1       -0.0231
     13 C           4.7443    1.1908    0.0000 C.ar    1  UNL1        0.0018
     14 C           5.7443    1.1908    0.0000 C.3     1  UNL1       -0.0198
     15 C           3.1062   -3.0780    0.0000 C.3     1  UNL1       -0.0252
     16 C           2.5461   -2.2496    0.0000 C.3     1  UNL1       -0.0252
     17 C           6.1955   -2.5206    0.0000 C.ar    1  UNL1        0.0329
     18 C           7.0136   -1.0293    0.0000 C.ar    1  UNL1       -0.0162
     19 C           3.0886    0.5483    0.0000 C.ar    1  UNL1       -0.0540
     20 C           7.0389   -2.0132    0.0000 C.ar    1  UNL1        0.1235
     21 C           4.3788    2.1662    0.0000 C.ar    1  UNL1        0.1620
     22 C           2.7005    1.5150    0.0000 C.ar    1  UNL1       -0.0160
     23 C           3.3500    2.3293    0.0000 C.ar    1  UNL1        0.1616
     24 C           6.2097   -3.5205    0.0000 C.3     1  UNL1       -0.0328
     25 C           2.0000    3.4145    0.0000 C.3     1  UNL1        0.0790
     26 H           3.5545   -0.2493    0.0000 H       1  UNL1        0.0400
     27 H           3.2261   -0.5710    0.0000 H       1  UNL1        0.0313
     28 H           2.8714   -1.2862    0.0000 H       1  UNL1        0.0313
     29 H           6.9264    0.1400    0.0000 H       1  UNL1        0.0316
     30 H           6.7544    0.8937    0.0000 H       1  UNL1        0.0316
     31 H           6.3029    1.4598    0.0000 H       1  UNL1        0.0318
     32 H           5.6064    1.7952    0.0000 H       1  UNL1        0.0318
     33 H           2.5487   -2.8068    0.0000 H       1  UNL1        0.0268
     34 H           2.8351   -3.6355    0.0000 H       1  UNL1        0.0268
     35 H           3.6638   -3.3491    0.0000 H       1  UNL1        0.0268
     36 H           2.5022   -1.6311    0.0000 H       1  UNL1        0.0268
     37 H           1.9277   -2.2935    0.0000 H       1  UNL1        0.0268
     38 H           2.5901   -2.8680    0.0000 H       1  UNL1        0.0268
     39 H           7.5411   -0.7036    0.0000 H       1  UNL1        0.0657
     40 H           2.7076    0.0591    0.0000 H       1  UNL1        0.0622
     41 H           2.0871    1.6050    0.0000 H       1  UNL1        0.0655
     42 H           5.5897   -3.5292    0.0000 H       1  UNL1        0.0280
     43 H           6.2184   -4.1404    0.0000 H       1  UNL1        0.0280
     44 H           6.8296   -3.5117    0.0000 H       1  UNL1        0.0280
     45 H           8.4457   -2.1725    0.0000 H       1  UNL1        0.2921
     46 H           4.7914    3.5205    0.0000 H       1  UNL1        0.2923
     47 H           2.0948    4.0272    0.0000 H       1  UNL1        0.0660
     48 H           1.3873    3.5092    0.0000 H       1  UNL1        0.0660
     49 H           1.9052    2.8018    0.0000 H       1  UNL1        0.0660
@<TRIPOS>BOND
     1     1     7    1
     2     1    10    1
     3     2    20    1
     4     2    45    1
     5     3    21    1
     6     3    46    1
     7     4    23    1
     8     4    25    1
     9     5     6    1
    10     5     8    1
    11     5     9    1
    12     5    26    1
    13     6     7    1
    14     6    27    1
    15     6    28    1
    16     7    15    1
    17     7    16    1
    18     8    10   ar
    19     8    11   ar
    20     9    13   ar
    21     9    19   ar
    22    10    17   ar
    23    11    12    1
    24    11    18   ar
    25    12    14    1
    26    12    29    1
    27    12    30    1
    28    13    14    1
    29    13    21   ar
    30    14    31    1
    31    14    32    1
    32    15    33    1
    33    15    34    1
    34    15    35    1
    35    16    36    1
    36    16    37    1
    37    16    38    1
    38    17    20   ar
    39    17    24    1
    40    18    20   ar
    41    18    39    1
    42    19    22   ar
    43    19    40    1
    44    21    23   ar
    45    22    23   ar
    46    22    41    1
    47    24    42    1
    48    24    43    1
    49    24    44    1
    50    25    47    1
    51    25    48    1
    52    25    49    1
