@<TRIPOS>MOLECULE
IMPHY013765
 25 25 0 0 0
SMALL
GASTEIGER

@<TRIPOS>ATOM
      1 O           3.7320    1.3450    0.0000 O.3     1  UNL1       -0.5062
      2 C           4.5981   -0.1550    0.0000 C.ar    1  UNL1       -0.0058
      3 C           2.8660   -0.1550    0.0000 C.ar    1  UNL1       -0.0058
      4 C           4.5981   -1.1550    0.0000 C.ar    1  UNL1       -0.0438
      5 C           2.8660   -1.1550    0.0000 C.ar    1  UNL1       -0.0438
      6 C           3.7320    0.3450    0.0000 C.ar    1  UNL1        0.1231
      7 C           3.7320   -1.6550    0.0000 C.ar    1  UNL1       -0.0552
      8 C           5.4641    0.3450    0.0000 C.3     1  UNL1       -0.0360
      9 C           2.0000    0.3450    0.0000 C.3     1  UNL1       -0.0360
     10 C           5.4641   -1.6550    0.0000 C.3     1  UNL1       -0.0393
     11 C           2.0000   -1.6550    0.0000 C.3     1  UNL1       -0.0393
     12 H           3.7320   -2.2750    0.0000 H       1  UNL1        0.0623
     13 H           5.7741   -0.1919    0.0000 H       1  UNL1        0.0279
     14 H           6.0010    0.6550    0.0000 H       1  UNL1        0.0279
     15 H           5.1541    0.8819    0.0000 H       1  UNL1        0.0279
     16 H           2.3100    0.8819    0.0000 H       1  UNL1        0.0279
     17 H           1.4631    0.6550    0.0000 H       1  UNL1        0.0279
     18 H           1.6900   -0.1919    0.0000 H       1  UNL1        0.0279
     19 H           5.1541   -2.1919    0.0000 H       1  UNL1        0.0278
     20 H           6.0010   -1.9650    0.0000 H       1  UNL1        0.0278
     21 H           5.7741   -1.1181    0.0000 H       1  UNL1        0.0278
     22 H           1.6900   -1.1181    0.0000 H       1  UNL1        0.0278
     23 H           1.4631   -1.9650    0.0000 H       1  UNL1        0.0278
     24 H           2.3100   -2.1919    0.0000 H       1  UNL1        0.0278
     25 H           4.2690    1.6550    0.0000 H       1  UNL1        0.2922
@<TRIPOS>BOND
     1     1     6    1
     2     1    25    1
     3     2     4   ar
     4     2     6   ar
     5     2     8    1
     6     3     5   ar
     7     3     6   ar
     8     3     9    1
     9     4     7   ar
    10     4    10    1
    11     5     7   ar
    12     5    11    1
    13     7    12    1
    14     8    13    1
    15     8    14    1
    16     8    15    1
    17     9    16    1
    18     9    17    1
    19     9    18    1
    20    10    19    1
    21    10    20    1
    22    10    21    1
    23    11    22    1
    24    11    23    1
    25    11    24    1
