@<TRIPOS>MOLECULE
IMPHY016252
 21 20 0 0 0
SMALL
GASTEIGER

@<TRIPOS>ATOM
      1 O           5.4641   -0.2500    0.0000 O.3     1  UNL1       -0.4604
      2 O           6.3301    1.2500    0.0000 O.2     1  UNL1       -0.2512
      3 C           3.7320   -0.2500    0.0000 C.2     1  UNL1       -0.0399
      4 C           4.5981    0.2500    0.0000 C.3     1  UNL1        0.1133
      5 C           3.7320   -1.2500    0.0000 C.3     1  UNL1       -0.0406
      6 C           2.8660    0.2500    0.0000 C.2     1  UNL1       -0.0849
      7 C           2.0000   -0.2500    0.0000 C.3     1  UNL1       -0.0465
      8 C           6.3301    0.2500    0.0000 C.2     1  UNL1        0.3042
      9 C           7.1962   -0.2500    0.0000 C.3     1  UNL1        0.0332
     10 H           4.9966    0.7249    0.0000 H       1  UNL1        0.0745
     11 H           4.1996    0.7249    0.0000 H       1  UNL1        0.0745
     12 H           3.1120   -1.2500    0.0000 H       1  UNL1        0.0275
     13 H           3.7320   -1.8700    0.0000 H       1  UNL1        0.0275
     14 H           4.3520   -1.2500    0.0000 H       1  UNL1        0.0275
     15 H           2.8660    0.8700    0.0000 H       1  UNL1        0.0570
     16 H           1.6900    0.2869    0.0000 H       1  UNL1        0.0272
     17 H           1.4631   -0.5600    0.0000 H       1  UNL1        0.0272
     18 H           2.3100   -0.7869    0.0000 H       1  UNL1        0.0272
     19 H           6.8862   -0.7869    0.0000 H       1  UNL1        0.0342
     20 H           7.7331   -0.5600    0.0000 H       1  UNL1        0.0342
     21 H           7.5062    0.2869    0.0000 H       1  UNL1        0.0342
@<TRIPOS>BOND
     1     1     4    1
     2     1     8    1
     3     2     8    2
     4     3     4    1
     5     3     5    1
     6     3     6    2
     7     4    10    1
     8     4    11    1
     9     5    12    1
    10     5    13    1
    11     5    14    1
    12     6     7    1
    13     6    15    1
    14     7    16    1
    15     7    17    1
    16     7    18    1
    17     8     9    1
    18     9    19    1
    19     9    20    1
    20     9    21    1
