@<TRIPOS>MOLECULE
IMPHY001205
 47 46 0 0 0
SMALL
GASTEIGER

@<TRIPOS>ATOM
      1 K          10.3312    0.6550    0.0000 K       1  UNL1        0.0000
      2 S           6.0010   -0.8450    0.0000 S.3     2  UNL2        0.0000
      3 S           4.2690    3.1550    0.0000 S.O2    2  UNL2        0.0000
      4 S           8.5991    0.6550    0.0000 S.3     2  UNL2        0.0000
      5 O           4.2690   -0.8450    0.0000 O.3     2  UNL2        0.0000
      6 O           4.2690   -3.8450    0.0000 O.3     2  UNL2        0.0000
      7 O           2.5369   -2.8450    0.0000 O.3     2  UNL2        0.0000
      8 O           6.0010   -2.8450    0.0000 O.3     2  UNL2        0.0000
      9 O           2.5369    0.1550    0.0000 O.3     2  UNL2        0.0000
     10 O           3.2690    3.1550    0.0000 O.2     2  UNL2        0.0000
     11 O           5.2690    3.1550    0.0000 O.2     2  UNL2        0.0000
     12 O           7.7331    0.1550    0.0000 O.2     2  UNL2        0.0000
     13 O           9.4651    1.1550    0.0000 O.co2   2  UNL2       -0.3300
     14 O           9.0991   -0.2110    0.0000 O.2     2  UNL2       -0.3300
     15 O           8.0991    1.5210    0.0000 O.2     2  UNL2       -0.3300
     16 N           6.8671    0.6550    0.0000 N.2     2  UNL2        0.0000
     17 C           4.2690   -2.8450    0.0000 C.3     2  UNL2        0.0000
     18 C           3.4030   -2.3450    0.0000 C.3     2  UNL2        0.0000
     19 C           5.1350   -2.3450    0.0000 C.3     2  UNL2        0.0000
     20 C           3.4030   -1.3450    0.0000 C.3     2  UNL2        0.0000
     21 C           5.1350   -1.3450    0.0000 C.3     2  UNL2        0.0000
     22 C           2.5369   -0.8450    0.0000 C.3     2  UNL2        0.0000
     23 C           6.0010    0.1550    0.0000 C.2     2  UNL2        0.0000
     24 C           5.1350    0.6550    0.0000 C.3     2  UNL2        0.0000
     25 C           5.1350    1.6550    0.0000 C.3     2  UNL2        0.0000
     26 C           4.2690    2.1550    0.0000 C.3     2  UNL2        0.0000
     27 C           4.2690    4.1550    0.0000 C.3     2  UNL2        0.0000
     28 H           4.8059   -3.1550    0.0000 H       2  UNL2        0.0000
     29 H           3.4030   -2.9650    0.0000 H       2  UNL2        0.0000
     30 H           5.6720   -2.0350    0.0000 H       2  UNL2        0.0000
     31 H           3.4030   -0.7250    0.0000 H       2  UNL2        0.0000
     32 H           5.1350   -0.7250    0.0000 H       2  UNL2        0.0000
     33 H           1.9264   -0.7373    0.0000 H       2  UNL2        0.0000
     34 H           2.3249   -1.4276    0.0000 H       2  UNL2        0.0000
     35 H           3.7320   -4.1550    0.0000 H       2  UNL2        0.0000
     36 H           2.0000   -2.5350    0.0000 H       2  UNL2        0.0000
     37 H           6.5380   -2.5350    0.0000 H       2  UNL2        0.0000
     38 H           4.5244    0.7627    0.0000 H       2  UNL2        0.0000
     39 H           4.9230    0.0724    0.0000 H       2  UNL2        0.0000
     40 H           5.7456    1.5473    0.0000 H       2  UNL2        0.0000
     41 H           5.3471    2.2376    0.0000 H       2  UNL2        0.0000
     42 H           3.6584    2.2627    0.0000 H       2  UNL2        0.0000
     43 H           4.0569    1.5724    0.0000 H       2  UNL2        0.0000
     44 H           2.0000    0.4650    0.0000 H       2  UNL2        0.0000
     45 H           4.8890    4.1550    0.0000 H       2  UNL2        0.0000
     46 H           4.2690    4.7750    0.0000 H       2  UNL2        0.0000
     47 H           3.6490    4.1550    0.0000 H       2  UNL2        0.0000
@<TRIPOS>UNITY_ATOM_ATTR
1 1
charge 1
13 1
charge -1
@<TRIPOS>BOND
     1    21     2    1
     2     2    23    1
     3     3    10    2
     4     3    11    2
     5     3    26    1
     6     3    27    1
     7     4    12    1
     8     4    13    1
     9     4    14    2
    10     4    15    2
    11     5    20    1
    12     5    21    1
    13    17     6    1
    14     6    35    1
    15    18     7    1
    16     7    36    1
    17    19     8    1
    18     8    37    1
    19     9    22    1
    20     9    44    1
    21    12    16    1
    22    16    23    2
    23    17    18    1
    24    17    19    1
    25    17    28    1
    26    18    20    1
    27    18    29    1
    28    19    21    1
    29    19    30    1
    30    20    22    1
    31    20    31    1
    32    21    32    1
    33    22    33    1
    34    22    34    1
    35    23    24    1
    36    24    25    1
    37    24    38    1
    38    24    39    1
    39    25    26    1
    40    25    40    1
    41    25    41    1
    42    26    42    1
    43    26    43    1
    44    27    45    1
    45    27    46    1
    46    27    47    1
