@<TRIPOS>MOLECULE
IMPHY015975
 46 46 0 0 0
SMALL
GASTEIGER

@<TRIPOS>ATOM
      1 O           8.5622   -5.1830    0.0000 O.3     1  UNL1       -0.3717
      2 C           8.0622   -4.3170    0.0000 C.3     1  UNL1        0.0821
      3 C           7.1962   -3.8170    0.0000 C.3     1  UNL1       -0.0244
      4 C           7.1962   -2.8170    0.0000 C.3     1  UNL1       -0.0506
      5 C           9.0622   -4.3170    0.0000 C.3     1  UNL1        0.0743
      6 C           6.3301   -2.3170    0.0000 C.3     1  UNL1       -0.0530
      7 C           6.3301   -1.3170    0.0000 C.3     1  UNL1       -0.0531
      8 C           5.4641   -0.8170    0.0000 C.3     1  UNL1       -0.0531
      9 C           5.4641    0.1830    0.0000 C.3     1  UNL1       -0.0531
     10 C           4.5981    0.6830    0.0000 C.3     1  UNL1       -0.0531
     11 C           4.5981    1.6830    0.0000 C.3     1  UNL1       -0.0531
     12 C           3.7320    2.1830    0.0000 C.3     1  UNL1       -0.0531
     13 C           3.7320    3.1830    0.0000 C.3     1  UNL1       -0.0531
     14 C           2.8660    3.6830    0.0000 C.3     1  UNL1       -0.0533
     15 C           2.8660    4.6830    0.0000 C.3     1  UNL1       -0.0559
     16 C           2.0000    5.1830    0.0000 C.3     1  UNL1       -0.0653
     17 H           7.6238   -4.7554    0.0000 H       1  UNL1        0.0619
     18 H           6.5856   -3.7093    0.0000 H       1  UNL1        0.0291
     19 H           6.9841   -4.3996    0.0000 H       1  UNL1        0.0291
     20 H           7.8067   -2.9247    0.0000 H       1  UNL1        0.0266
     21 H           7.4082   -2.2344    0.0000 H       1  UNL1        0.0266
     22 H           9.6448   -4.5290    0.0000 H       1  UNL1        0.0586
     23 H           9.1698   -3.7064    0.0000 H       1  UNL1        0.0586
     24 H           5.7196   -2.2093    0.0000 H       1  UNL1        0.0265
     25 H           6.1181   -2.8996    0.0000 H       1  UNL1        0.0265
     26 H           6.9407   -1.4246    0.0000 H       1  UNL1        0.0265
     27 H           6.5422   -0.7344    0.0000 H       1  UNL1        0.0265
     28 H           4.8535   -0.7093    0.0000 H       1  UNL1        0.0265
     29 H           5.2520   -1.3996    0.0000 H       1  UNL1        0.0265
     30 H           6.0747    0.0754    0.0000 H       1  UNL1        0.0265
     31 H           5.6762    0.7656    0.0000 H       1  UNL1        0.0265
     32 H           3.9875    0.7907    0.0000 H       1  UNL1        0.0265
     33 H           4.3860    0.1004    0.0000 H       1  UNL1        0.0265
     34 H           5.2087    1.5754    0.0000 H       1  UNL1        0.0265
     35 H           4.8101    2.2656    0.0000 H       1  UNL1        0.0265
     36 H           3.1215    2.2907    0.0000 H       1  UNL1        0.0265
     37 H           3.5200    1.6004    0.0000 H       1  UNL1        0.0265
     38 H           4.3426    3.0753    0.0000 H       1  UNL1        0.0265
     39 H           3.9441    3.7656    0.0000 H       1  UNL1        0.0265
     40 H           2.2554    3.7907    0.0000 H       1  UNL1        0.0265
     41 H           2.6540    3.1004    0.0000 H       1  UNL1        0.0265
     42 H           3.4766    4.5754    0.0000 H       1  UNL1        0.0263
     43 H           3.0781    5.2656    0.0000 H       1  UNL1        0.0263
     44 H           2.3100    5.7200    0.0000 H       1  UNL1        0.0230
     45 H           1.4631    5.4930    0.0000 H       1  UNL1        0.0230
     46 H           1.6900    4.6461    0.0000 H       1  UNL1        0.0230
@<TRIPOS>BOND
     1     1     2    1
     2     1     5    1
     3     2     3    1
     4     2     5    1
     5     2    17    1
     6     3     4    1
     7     3    18    1
     8     3    19    1
     9     4     6    1
    10     4    20    1
    11     4    21    1
    12     5    22    1
    13     5    23    1
    14     6     7    1
    15     6    24    1
    16     6    25    1
    17     7     8    1
    18     7    26    1
    19     7    27    1
    20     8     9    1
    21     8    28    1
    22     8    29    1
    23     9    10    1
    24     9    30    1
    25     9    31    1
    26    10    11    1
    27    10    32    1
    28    10    33    1
    29    11    12    1
    30    11    34    1
    31    11    35    1
    32    12    13    1
    33    12    36    1
    34    12    37    1
    35    13    14    1
    36    13    38    1
    37    13    39    1
    38    14    15    1
    39    14    40    1
    40    14    41    1
    41    15    16    1
    42    15    42    1
    43    15    43    1
    44    16    44    1
    45    16    45    1
    46    16    46    1
