@<TRIPOS>MOLECULE
IMPHY010475
 103 109 0 0 0
SMALL
GASTEIGER

@<TRIPOS>ATOM
      1 O          12.0963    1.6674    0.0000 O.3     1  UNL1       -0.3877
      2 O          10.3312   -3.5361    0.0000 O.3     1  UNL1       -0.3454
      3 O           8.4922    5.1811    0.0000 O.3     1  UNL1       -0.4571
      4 O           8.5991   -3.5361    0.0000 O.3     1  UNL1       -0.3405
      5 O           9.1273    6.8461    0.0000 O.2     1  UNL1       -0.2456
      6 O          10.3312   -5.5361    0.0000 O.3     1  UNL1       -0.3841
      7 O           8.5991   -6.5361    0.0000 O.3     1  UNL1       -0.3864
      8 O           6.8671   -5.5361    0.0000 O.3     1  UNL1       -0.3865
      9 O           6.0010   -4.0361    0.0000 O.3     1  UNL1       -0.3460
     10 O           4.2690   -4.0361    0.0000 O.3     1  UNL1       -0.3405
     11 O           6.0010   -2.0361    0.0000 O.3     1  UNL1       -0.3841
     12 O           4.2690   -1.0361    0.0000 O.3     1  UNL1       -0.3864
     13 O           2.5369   -2.0361    0.0000 O.3     1  UNL1       -0.3865
     14 O           2.5369   -5.0361    0.0000 O.3     1  UNL1       -0.3924
     15 C          11.2284    2.1641    0.0000 C.3     1  UNL1        0.0751
     16 C          11.2322    1.1641    0.0000 C.3     1  UNL1       -0.0083
     17 C          10.3681    0.6608    0.0000 C.3     1  UNL1       -0.0299
     18 C          10.3604    2.6608    0.0000 C.3     1  UNL1        0.0036
     19 C          10.3561   -0.3808    0.0000 C.3     1  UNL1       -0.0259
     20 C          11.2562   -0.9051    0.0000 C.3     1  UNL1       -0.0330
     21 C           9.5002    1.1574    0.0000 C.3     1  UNL1       -0.0488
     22 C           9.4963    2.1574    0.0000 C.3     1  UNL1       -0.0442
     23 C          10.5659    3.6334    0.0000 C.3     1  UNL1       -0.0081
     24 C          12.1442    0.6608    0.0000 C.3     1  UNL1       -0.0470
     25 C          11.9628    2.8340    0.0000 C.3     1  UNL1       -0.0226
     26 C          12.1562   -0.3808    0.0000 C.3     1  UNL1       -0.0493
     27 C          11.5542    3.7402    0.0000 C.3     1  UNL1       -0.0432
     28 C           9.4062   -0.9051    0.0000 C.3     1  UNL1       -0.0448
     29 C          11.2687   -1.9900    0.0000 C.3     1  UNL1       -0.0232
     30 C           9.4925    3.1574    0.0000 C.3     1  UNL1       -0.0564
     31 C           9.4920    0.1225    0.0000 C.3     1  UNL1       -0.0590
     32 C           9.3936   -1.9900    0.0000 C.3     1  UNL1       -0.0260
     33 C          10.3312   -2.5361    0.0000 C.3     1  UNL1        0.0621
     34 C           9.8952    4.3751    0.0000 C.2     1  UNL1       -0.0222
     35 C           8.9009    4.2684    0.0000 C.3     1  UNL1        0.1147
     36 C          10.1010    5.3537    0.0000 C.2     1  UNL1        0.0252
     37 C           9.4651   -4.0361    0.0000 C.3     1  UNL1        0.1882
     38 C           9.2339    5.8518    0.0000 C.2     1  UNL1        0.3323
     39 C           9.4651   -5.0361    0.0000 C.3     1  UNL1        0.1341
     40 C           8.5991   -5.5361    0.0000 C.3     1  UNL1        0.1141
     41 C           7.7331   -4.0361    0.0000 C.3     1  UNL1        0.1134
     42 C           7.7331   -5.0361    0.0000 C.3     1  UNL1        0.1119
     43 C           6.8671   -3.5361    0.0000 C.3     1  UNL1        0.0796
     44 C           5.1350   -3.5361    0.0000 C.3     1  UNL1        0.1880
     45 C           5.1350   -2.5361    0.0000 C.3     1  UNL1        0.1341
     46 C           4.2690   -2.0361    0.0000 C.3     1  UNL1        0.1141
     47 C           3.4030   -3.5361    0.0000 C.3     1  UNL1        0.1130
     48 C           3.4030   -2.5361    0.0000 C.3     1  UNL1        0.1119
     49 C           2.5369   -4.0361    0.0000 C.3     1  UNL1        0.0730
     50 H          11.9634    1.5976    0.0000 H       1  UNL1        0.0331
     51 H          11.1026    0.2329    0.0000 H       1  UNL1        0.0310
     52 H          11.9955   -1.3244    0.0000 H       1  UNL1        0.0307
     53 H           8.8892    1.2627    0.0000 H       1  UNL1        0.0268
     54 H           9.2904    0.5740    0.0000 H       1  UNL1        0.0268
     55 H           9.2820    2.7392    0.0000 H       1  UNL1        0.0272
     56 H           8.8862    2.0474    0.0000 H       1  UNL1        0.0272
     57 H          10.7866    4.2128    0.0000 H       1  UNL1        0.0353
     58 H          12.7562    0.5617    0.0000 H       1  UNL1        0.0269
     59 H          12.3465    1.2468    0.0000 H       1  UNL1        0.0269
     60 H          12.3302    2.3346    0.0000 H       1  UNL1        0.0293
     61 H          12.4981    3.1468    0.0000 H       1  UNL1        0.0293
     62 H          12.3720   -0.9620    0.0000 H       1  UNL1        0.0268
     63 H          12.7658   -0.2677    0.0000 H       1  UNL1        0.0268
     64 H          12.1431    3.9343    0.0000 H       1  UNL1        0.0272
     65 H          11.4231    4.3462    0.0000 H       1  UNL1        0.0272
     66 H           9.2039   -0.3190    0.0000 H       1  UNL1        0.0271
     67 H           8.7941   -1.0041    0.0000 H       1  UNL1        0.0271
     68 H          11.4845   -2.5712    0.0000 H       1  UNL1        0.0293
     69 H          11.8783   -1.8769    0.0000 H       1  UNL1        0.0293
     70 H           9.8004    3.6955    0.0000 H       1  UNL1        0.0236
     71 H           8.9544    3.4653    0.0000 H       1  UNL1        0.0236
     72 H           9.1846    2.6193    0.0000 H       1  UNL1        0.0236
     73 H           9.8041    0.6583    0.0000 H       1  UNL1        0.0235
     74 H           8.9563    0.4346    0.0000 H       1  UNL1        0.0235
     75 H           9.1799   -0.4132    0.0000 H       1  UNL1        0.0235
     76 H           8.7840   -1.8769    0.0000 H       1  UNL1        0.0290
     77 H           9.1778   -2.5712    0.0000 H       1  UNL1        0.0290
     78 H          10.8687   -2.8451    0.0000 H       1  UNL1        0.0597
     79 H          12.6321    1.9795    0.0000 H       1  UNL1        0.2102
     80 H           8.3116    4.0756    0.0000 H       1  UNL1        0.0746
     81 H           9.0311    3.6623    0.0000 H       1  UNL1        0.0746
     82 H          10.6669    5.6070    0.0000 H       1  UNL1        0.0689
     83 H          10.0021   -4.3461    0.0000 H       1  UNL1        0.0937
     84 H           9.4651   -5.8861    0.0000 H       1  UNL1        0.0671
     85 H           7.8630   -5.9611    0.0000 H       1  UNL1        0.0648
     86 H           7.7331   -3.1861    0.0000 H       1  UNL1        0.0647
     87 H           7.1962   -4.7261    0.0000 H       1  UNL1        0.0647
     88 H          10.3312   -6.1561    0.0000 H       1  UNL1        0.2101
     89 H           7.2656   -3.0612    0.0000 H       1  UNL1        0.0587
     90 H           6.4685   -3.0612    0.0000 H       1  UNL1        0.0587
     91 H           8.0622   -6.8461    0.0000 H       1  UNL1        0.2100
     92 H           6.8671   -6.1561    0.0000 H       1  UNL1        0.2100
     93 H           5.1350   -4.1561    0.0000 H       1  UNL1        0.0937
     94 H           5.1350   -1.6861    0.0000 H       1  UNL1        0.0671
     95 H           3.5329   -1.6111    0.0000 H       1  UNL1        0.0648
     96 H           3.4030   -4.3861    0.0000 H       1  UNL1        0.0647
     97 H           2.8660   -2.8461    0.0000 H       1  UNL1        0.0647
     98 H           2.3249   -3.4535    0.0000 H       1  UNL1        0.0584
     99 H           1.9264   -4.1438    0.0000 H       1  UNL1        0.0584
    100 H           6.0010   -1.4161    0.0000 H       1  UNL1        0.2101
    101 H           3.7320   -0.7261    0.0000 H       1  UNL1        0.2100
    102 H           2.0000   -2.3461    0.0000 H       1  UNL1        0.2100
    103 H           2.0000   -5.3461    0.0000 H       1  UNL1        0.2095
@<TRIPOS>BOND
     1    15     1    1
     2     1    79    1
     3    33     2    1
     4    37     2    1
     5     3    35    1
     6     3    38    1
     7     4    37    1
     8     4    41    1
     9     5    38    2
    10     6    39    1
    11     6    88    1
    12     7    40    1
    13     7    91    1
    14    42     8    1
    15     8    92    1
    16     9    43    1
    17    44     9    1
    18    10    44    1
    19    10    47    1
    20    11    45    1
    21    11   100    1
    22    12    46    1
    23    12   101    1
    24    48    13    1
    25    13   102    1
    26    14    49    1
    27    14   103    1
    28    15    16    1
    29    15    18    1
    30    15    25    1
    31    16    17    1
    32    16    24    1
    33    16    50    1
    34    17    19    1
    35    17    21    1
    36    17    51    1
    37    18    22    1
    38    18    23    1
    39    18    30    1
    40    19    20    1
    41    19    28    1
    42    19    31    1
    43    20    26    1
    44    20    29    1
    45    20    52    1
    46    21    22    1
    47    21    53    1
    48    21    54    1
    49    22    55    1
    50    22    56    1
    51    23    27    1
    52    23    34    1
    53    23    57    1
    54    24    26    1
    55    24    58    1
    56    24    59    1
    57    25    27    1
    58    25    60    1
    59    25    61    1
    60    26    62    1
    61    26    63    1
    62    27    64    1
    63    27    65    1
    64    28    32    1
    65    28    66    1
    66    28    67    1
    67    29    33    1
    68    29    68    1
    69    29    69    1
    70    30    70    1
    71    30    71    1
    72    30    72    1
    73    31    73    1
    74    31    74    1
    75    31    75    1
    76    32    33    1
    77    32    76    1
    78    32    77    1
    79    33    78    1
    80    34    35    1
    81    34    36    2
    82    35    80    1
    83    35    81    1
    84    36    38    1
    85    36    82    1
    86    37    39    1
    87    37    83    1
    88    39    40    1
    89    39    84    1
    90    40    42    1
    91    40    85    1
    92    41    42    1
    93    41    43    1
    94    41    86    1
    95    42    87    1
    96    43    89    1
    97    43    90    1
    98    44    45    1
    99    44    93    1
   100    45    46    1
   101    45    94    1
   102    46    48    1
   103    46    95    1
   104    47    48    1
   105    47    49    1
   106    47    96    1
   107    48    97    1
   108    49    98    1
   109    49    99    1
