@<TRIPOS>MOLECULE
IMPHY016404
 26 27 0 0 0
SMALL
GASTEIGER

@<TRIPOS>ATOM
      1 F           2.0000   -2.7500    0.0000 F       1  UNL1       -0.2025
      2 F           3.7320   -3.7500    0.0000 F       1  UNL1       -0.2025
      3 O           3.7320    3.2500    0.0000 O.3     1  UNL1       -0.4951
      4 C           3.7320    0.2500    0.0000 C.ar    1  UNL1       -0.0176
      5 C           3.7320   -0.7500    0.0000 C.ar    1  UNL1       -0.0150
      6 C           2.8660    0.7500    0.0000 C.ar    1  UNL1       -0.0506
      7 C           4.5981    0.7500    0.0000 C.ar    1  UNL1       -0.0506
      8 C           2.8660   -1.2500    0.0000 C.ar    1  UNL1       -0.0159
      9 C           4.5981   -1.2500    0.0000 C.ar    1  UNL1       -0.0511
     10 C           3.7320    2.2500    0.0000 C.ar    1  UNL1        0.1201
     11 C           2.8660    1.7500    0.0000 C.ar    1  UNL1       -0.0194
     12 C           4.5981    1.7500    0.0000 C.ar    1  UNL1       -0.0194
     13 C           2.8660   -2.2500    0.0000 C.ar    1  UNL1        0.1590
     14 C           4.5981   -2.2500    0.0000 C.ar    1  UNL1       -0.0230
     15 C           3.7320   -2.7500    0.0000 C.ar    1  UNL1        0.1584
     16 C           4.5981    3.7500    0.0000 C.3     1  UNL1        0.0788
     17 H           2.3291    0.4400    0.0000 H       1  UNL1        0.0625
     18 H           5.1350    0.4400    0.0000 H       1  UNL1        0.0625
     19 H           2.3291   -0.9400    0.0000 H       1  UNL1        0.0653
     20 H           5.1350   -0.9400    0.0000 H       1  UNL1        0.0624
     21 H           2.3291    2.0600    0.0000 H       1  UNL1        0.0654
     22 H           5.1350    2.0600    0.0000 H       1  UNL1        0.0654
     23 H           5.1350   -2.5600    0.0000 H       1  UNL1        0.0647
     24 H           4.9081    3.2131    0.0000 H       1  UNL1        0.0660
     25 H           5.1350    4.0600    0.0000 H       1  UNL1        0.0660
     26 H           4.2881    4.2869    0.0000 H       1  UNL1        0.0660
@<TRIPOS>BOND
     1     1    13    1
     2     2    15    1
     3     3    10    1
     4     3    16    1
     5     4     5    1
     6     4     6   ar
     7     4     7   ar
     8     5     8   ar
     9     5     9   ar
    10     6    11   ar
    11     6    17    1
    12     7    12   ar
    13     7    18    1
    14     8    13   ar
    15     8    19    1
    16     9    14   ar
    17     9    20    1
    18    10    11   ar
    19    10    12   ar
    20    11    21    1
    21    12    22    1
    22    13    15   ar
    23    14    15   ar
    24    14    23    1
    25    16    24    1
    26    16    25    1
    27    16    26    1
