@<TRIPOS>MOLECULE
IMPHY010632
 64 68 0 0 0
SMALL
GASTEIGER

@<TRIPOS>ATOM
      1 O           9.7082    1.6377    0.0000 O.3     1  UNL1       -0.3580
      2 O           9.0532    4.3194    0.0000 O.3     1  UNL1       -0.3885
      3 O           5.9670    2.0740    0.0000 O.2     1  UNL1       -0.4709
      4 O           6.8671    0.5497    0.0000 O.3     1  UNL1       -0.3095
      5 O           8.5136    0.0337    0.0000 O.3     1  UNL1       -0.4581
      6 O           5.1350    0.5497    0.0000 O.3     1  UNL1       -0.3404
      7 O           6.8671   -1.4503    0.0000 O.3     1  UNL1       -0.3841
      8 O           5.1350   -2.4503    0.0000 O.3     1  UNL1       -0.3864
      9 O          10.1039    0.7198    0.0000 O.2     1  UNL1       -0.2450
     10 O           3.4030   -1.4503    0.0000 O.3     1  UNL1       -0.3865
     11 O           2.5369    0.0497    0.0000 O.3     1  UNL1       -0.3924
     12 O           9.1049   -3.5231    0.0000 O.3     1  UNL1       -0.4914
     13 O          11.0914   -3.7551    0.0000 O.3     1  UNL1       -0.5033
     14 C           8.7145    1.7540    0.0000 C.3     1  UNL1        0.1413
     15 C           9.3116    2.5562    0.0000 C.3     1  UNL1        0.1185
     16 C           7.7671    2.0740    0.0000 C.3     1  UNL1        0.0652
     17 C           7.7787    3.0740    0.0000 C.3     1  UNL1        0.0201
     18 C           8.7333    3.3720    0.0000 C.3     1  UNL1        0.0910
     19 C           8.1174    0.9519    0.0000 C.3     1  UNL1        0.1247
     20 C           6.8671    1.5497    0.0000 C.3     1  UNL1        0.2097
     21 C           6.8910    3.6189    0.0000 C.2     1  UNL1       -0.0434
     22 C           5.9790    3.1156    0.0000 C.2     1  UNL1        0.0843
     23 C           6.0010    0.0497    0.0000 C.3     1  UNL1        0.1918
     24 C           6.0010   -0.9503    0.0000 C.3     1  UNL1        0.1342
     25 C           9.5068   -0.0824    0.0000 C.2     1  UNL1        0.3394
     26 C           5.1350   -1.4503    0.0000 C.3     1  UNL1        0.1141
     27 C           4.2690    0.0497    0.0000 C.3     1  UNL1        0.1130
     28 C           4.2690   -0.9503    0.0000 C.3     1  UNL1        0.1119
     29 C           9.9030   -1.0005    0.0000 C.ar    1  UNL1        0.0627
     30 C           3.4030    0.5497    0.0000 C.3     1  UNL1        0.0730
     31 C           9.3059   -1.8027    0.0000 C.ar    1  UNL1       -0.0023
     32 C          10.8962   -1.1166    0.0000 C.ar    1  UNL1       -0.0441
     33 C           9.7020   -2.7209    0.0000 C.ar    1  UNL1        0.1620
     34 C          11.2924   -2.0348    0.0000 C.ar    1  UNL1       -0.0157
     35 C          10.6953   -2.8369    0.0000 C.ar    1  UNL1        0.1585
     36 C           9.5011   -4.4412    0.0000 C.3     1  UNL1        0.0790
     37 H          10.0526    2.9727    0.0000 H       1  UNL1        0.0652
     38 H           7.8527    1.2283    0.0000 H       1  UNL1        0.0398
     39 H           7.8838    3.9174    0.0000 H       1  UNL1        0.0375
     40 H           9.3467    3.4618    0.0000 H       1  UNL1        0.0626
     41 H           7.6919    1.4028    0.0000 H       1  UNL1        0.0728
     42 H           7.5995    0.6111    0.0000 H       1  UNL1        0.0728
     43 H           7.4046    1.2408    0.0000 H       1  UNL1        0.1060
     44 H           6.9053    4.2387    0.0000 H       1  UNL1        0.0606
     45 H           9.6611    4.4412    0.0000 H       1  UNL1        0.2099
     46 H           5.4470    3.4338    0.0000 H       1  UNL1        0.1021
     47 H           6.0010    0.6697    0.0000 H       1  UNL1        0.0939
     48 H           6.0010   -1.5703    0.0000 H       1  UNL1        0.0671
     49 H           4.5981   -1.7603    0.0000 H       1  UNL1        0.0648
     50 H           4.2690    0.6697    0.0000 H       1  UNL1        0.0647
     51 H           4.2690   -1.5703    0.0000 H       1  UNL1        0.0647
     52 H           6.8671   -2.0703    0.0000 H       1  UNL1        0.2101
     53 H           3.8015    1.0247    0.0000 H       1  UNL1        0.0584
     54 H           3.0044    1.0247    0.0000 H       1  UNL1        0.0584
     55 H           4.5981   -2.7603    0.0000 H       1  UNL1        0.2100
     56 H           3.4030   -2.0703    0.0000 H       1  UNL1        0.2100
     57 H           8.6901   -1.7308    0.0000 H       1  UNL1        0.0663
     58 H          11.2664   -0.6192    0.0000 H       1  UNL1        0.0627
     59 H           2.0000    0.3597    0.0000 H       1  UNL1        0.2095
     60 H          11.9082   -2.1067    0.0000 H       1  UNL1        0.0655
     61 H          11.7072   -3.8270    0.0000 H       1  UNL1        0.2923
     62 H           8.9318   -4.6869    0.0000 H       1  UNL1        0.0660
     63 H           9.7467   -5.0105    0.0000 H       1  UNL1        0.0660
     64 H          10.0704   -4.1956    0.0000 H       1  UNL1        0.0660
@<TRIPOS>BOND
     1     1    14    1
     2     1    15    1
     3    18     2    1
     4     2    45    1
     5     3    20    1
     6     3    22    1
     7    20     4    1
     8    23     4    1
     9     5    19    1
    10     5    25    1
    11     6    23    1
    12     6    27    1
    13    24     7    1
    14     7    52    1
    15    26     8    1
    16     8    55    1
    17     9    25    2
    18    28    10    1
    19    10    56    1
    20    11    30    1
    21    11    59    1
    22    12    33    1
    23    12    36    1
    24    13    35    1
    25    13    61    1
    26    14    15    1
    27    14    16    1
    28    14    19    1
    29    15    18    1
    30    15    37    1
    31    16    17    1
    32    16    20    1
    33    16    38    1
    34    17    18    1
    35    17    21    1
    36    17    39    1
    37    18    40    1
    38    19    41    1
    39    19    42    1
    40    20    43    1
    41    21    22    2
    42    21    44    1
    43    22    46    1
    44    23    24    1
    45    23    47    1
    46    24    26    1
    47    24    48    1
    48    25    29    1
    49    26    28    1
    50    26    49    1
    51    27    28    1
    52    27    30    1
    53    27    50    1
    54    28    51    1
    55    29    31   ar
    56    29    32   ar
    57    30    53    1
    58    30    54    1
    59    31    33   ar
    60    31    57    1
    61    32    34   ar
    62    32    58    1
    63    33    35   ar
    64    34    35   ar
    65    34    60    1
    66    36    62    1
    67    36    63    1
    68    36    64    1
