@<TRIPOS>MOLECULE
IMPHY009009
 48 49 0 0 0
SMALL
GASTEIGER

@<TRIPOS>ATOM
      1 O           4.2690   -0.3450    0.0000 O.3     1  UNL1       -0.3405
      2 O           6.0010   -0.3450    0.0000 O.3     1  UNL1       -0.3444
      3 O           4.2690   -3.3450    0.0000 O.3     1  UNL1       -0.3864
      4 O           2.5369   -2.3450    0.0000 O.3     1  UNL1       -0.3865
      5 O           6.0010   -2.3450    0.0000 O.3     1  UNL1       -0.3841
      6 O           2.5369    0.6550    0.0000 O.3     1  UNL1       -0.3924
      7 C           4.2690   -2.3450    0.0000 C.3     1  UNL1        0.1141
      8 C           3.4030   -1.8450    0.0000 C.3     1  UNL1        0.1119
      9 C           5.1350   -1.8450    0.0000 C.3     1  UNL1        0.1341
     10 C           3.4030   -0.8450    0.0000 C.3     1  UNL1        0.1130
     11 C           5.1350   -0.8450    0.0000 C.3     1  UNL1        0.1883
     12 C           8.5991    2.1550    0.0000 C.3     1  UNL1       -0.0167
     13 C           7.7331    2.6550    0.0000 C.3     1  UNL1       -0.0425
     14 C           6.8671    2.1550    0.0000 C.3     1  UNL1       -0.0290
     15 C           6.8671    1.1550    0.0000 C.2     1  UNL1       -0.0480
     16 C           8.5991    1.1550    0.0000 C.3     1  UNL1       -0.0279
     17 C           6.0010    0.6550    0.0000 C.3     1  UNL1        0.0719
     18 C           2.5369   -0.3450    0.0000 C.3     1  UNL1        0.0730
     19 C           7.7331    0.6550    0.0000 C.2     1  UNL1       -0.0820
     20 C           9.4651    2.6550    0.0000 C.2     1  UNL1       -0.0763
     21 C           9.4651    3.6550    0.0000 C.3     1  UNL1       -0.0438
     22 C          10.3312    2.1550    0.0000 C.2     1  UNL1       -0.0994
     23 H           4.8059   -2.6550    0.0000 H       1  UNL1        0.0648
     24 H           3.4030   -2.4650    0.0000 H       1  UNL1        0.0647
     25 H           5.6720   -1.5350    0.0000 H       1  UNL1        0.0671
     26 H           3.4030   -0.2250    0.0000 H       1  UNL1        0.0647
     27 H           5.1350   -0.2250    0.0000 H       1  UNL1        0.0938
     28 H           8.5991    2.7750    0.0000 H       1  UNL1        0.0348
     29 H           8.1316    3.1300    0.0000 H       1  UNL1        0.0274
     30 H           7.3346    3.1300    0.0000 H       1  UNL1        0.0274
     31 H           6.6550    2.7376    0.0000 H       1  UNL1        0.0311
     32 H           6.2565    2.0473    0.0000 H       1  UNL1        0.0311
     33 H           8.8112    0.5724    0.0000 H       1  UNL1        0.0313
     34 H           9.2097    1.2627    0.0000 H       1  UNL1        0.0313
     35 H           5.7890    1.2376    0.0000 H       1  UNL1        0.0608
     36 H           5.3905    0.5473    0.0000 H       1  UNL1        0.0608
     37 H           1.9264   -0.2373    0.0000 H       1  UNL1        0.0584
     38 H           2.3249   -0.9276    0.0000 H       1  UNL1        0.0584
     39 H           7.7331    0.0350    0.0000 H       1  UNL1        0.0573
     40 H           3.7320   -3.6550    0.0000 H       1  UNL1        0.2100
     41 H           2.0000   -2.0350    0.0000 H       1  UNL1        0.2100
     42 H           6.5380   -2.0350    0.0000 H       1  UNL1        0.2101
     43 H          10.0851    3.6550    0.0000 H       1  UNL1        0.0274
     44 H           9.4651    4.2750    0.0000 H       1  UNL1        0.0274
     45 H           8.8451    3.6550    0.0000 H       1  UNL1        0.0274
     46 H           2.0000    0.9650    0.0000 H       1  UNL1        0.2095
     47 H          10.3312    1.5350    0.0000 H       1  UNL1        0.0534
     48 H          10.8681    2.4650    0.0000 H       1  UNL1        0.0534
@<TRIPOS>BOND
     1     1    10    1
     2     1    11    1
     3    11     2    1
     4     2    17    1
     5     7     3    1
     6     3    40    1
     7     8     4    1
     8     4    41    1
     9     9     5    1
    10     5    42    1
    11     6    18    1
    12     6    46    1
    13     7     8    1
    14     7     9    1
    15     7    23    1
    16     8    10    1
    17     8    24    1
    18     9    11    1
    19     9    25    1
    20    10    18    1
    21    10    26    1
    22    11    27    1
    23    12    13    1
    24    12    16    1
    25    12    20    1
    26    12    28    1
    27    13    14    1
    28    13    29    1
    29    13    30    1
    30    14    15    1
    31    14    31    1
    32    14    32    1
    33    15    17    1
    34    15    19    2
    35    16    19    1
    36    16    33    1
    37    16    34    1
    38    17    35    1
    39    17    36    1
    40    18    37    1
    41    18    38    1
    42    19    39    1
    43    20    21    1
    44    20    22    2
    45    21    43    1
    46    21    44    1
    47    21    45    1
    48    22    47    1
    49    22    48    1
