@<TRIPOS>MOLECULE
IMPHY007481
 28 29 0 0 0
SMALL
GASTEIGER

@<TRIPOS>ATOM
      1 O           5.5443   -0.9877    0.0000 O.3     1  UNL1       -0.4504
      2 O           2.0000   -1.1830    0.0000 O.2     1  UNL1       -0.2972
      3 O           7.1279   -0.1830    0.0000 O.2     1  UNL1       -0.2456
      4 C           3.7320    0.8170    0.0000 C.3     1  UNL1       -0.0030
      5 C           4.5981   -0.6830    0.0000 C.3     1  UNL1        0.1397
      6 C           4.5981    0.3170    0.0000 C.2     1  UNL1       -0.0136
      7 C           2.8660    0.3170    0.0000 C.3     1  UNL1        0.0149
      8 C           3.7320   -1.1830    0.0000 C.3     1  UNL1        0.0495
      9 C           2.8660   -0.6830    0.0000 C.2     1  UNL1        0.1383
     10 C           3.2320    1.6830    0.0000 C.3     1  UNL1       -0.0556
     11 C           4.2320    1.6830    0.0000 C.3     1  UNL1       -0.0556
     12 C           4.5981   -1.6830    0.0000 C.3     1  UNL1       -0.0204
     13 C           5.5443    0.6217    0.0000 C.2     1  UNL1        0.0260
     14 C           6.1279   -0.1830    0.0000 C.2     1  UNL1        0.3329
     15 H           2.6540    0.8996    0.0000 H       1  UNL1        0.0350
     16 H           2.2554    0.2093    0.0000 H       1  UNL1        0.0350
     17 H           3.3335   -1.6580    0.0000 H       1  UNL1        0.0384
     18 H           4.1306   -1.6580    0.0000 H       1  UNL1        0.0384
     19 H           3.7690    1.9930    0.0000 H       1  UNL1        0.0238
     20 H           2.9220    2.2200    0.0000 H       1  UNL1        0.0238
     21 H           2.6951    1.3730    0.0000 H       1  UNL1        0.0238
     22 H           4.7690    1.3730    0.0000 H       1  UNL1        0.0238
     23 H           4.5420    2.2200    0.0000 H       1  UNL1        0.0238
     24 H           3.6951    1.9930    0.0000 H       1  UNL1        0.0238
     25 H           3.9781   -1.6830    0.0000 H       1  UNL1        0.0271
     26 H           4.5981   -2.3030    0.0000 H       1  UNL1        0.0271
     27 H           5.2181   -1.6830    0.0000 H       1  UNL1        0.0271
     28 H           5.7369    1.2110    0.0000 H       1  UNL1        0.0690
@<TRIPOS>BOND
     1     1     5    1
     2     1    14    1
     3     2     9    2
     4     3    14    2
     5     4     6    1
     6     4     7    1
     7     4    10    1
     8     4    11    1
     9     5     6    1
    10     5     8    1
    11     5    12    1
    12     6    13    2
    13     7     9    1
    14     7    15    1
    15     7    16    1
    16     8     9    1
    17     8    17    1
    18     8    18    1
    19    10    19    1
    20    10    20    1
    21    10    21    1
    22    11    22    1
    23    11    23    1
    24    11    24    1
    25    12    25    1
    26    12    26    1
    27    12    27    1
    28    13    14    1
    29    13    28    1
