@<TRIPOS>MOLECULE
IMPHY012330
 32 32 0 0 0
SMALL
GASTEIGER

@<TRIPOS>ATOM
      1 O           4.2690   -2.7500    0.0000 O.3     1  UNL1       -0.4946
      2 O           2.5369    0.2500    0.0000 O.3     1  UNL1       -0.5056
      3 O           6.0010    0.2500    0.0000 O.3     1  UNL1       -0.5058
      4 O           3.4030    1.7500    0.0000 O.2     1  UNL1       -0.2918
      5 C           4.2690    0.2500    0.0000 C.ar    1  UNL1        0.1005
      6 C           5.1350    1.7500    0.0000 C.3     1  UNL1        0.0105
      7 C           4.2690    1.2500    0.0000 C.2     1  UNL1        0.1702
      8 C           3.4030   -1.2500    0.0000 C.ar    1  UNL1        0.0335
      9 C           3.4030   -0.2500    0.0000 C.ar    1  UNL1        0.1372
     10 C           5.1350    2.7500    0.0000 C.3     1  UNL1       -0.0489
     11 C           5.1350   -0.2500    0.0000 C.ar    1  UNL1        0.1343
     12 C           4.2690   -1.7500    0.0000 C.ar    1  UNL1        0.1300
     13 C           5.1350   -1.2500    0.0000 C.ar    1  UNL1        0.0227
     14 C           2.5369   -1.7500    0.0000 C.3     1  UNL1       -0.0327
     15 C           6.0010    3.2500    0.0000 C.3     1  UNL1       -0.0649
     16 C           5.1350   -3.2500    0.0000 C.3     1  UNL1        0.0788
     17 H           5.3471    1.1674    0.0000 H       1  UNL1        0.0345
     18 H           5.7456    1.8577    0.0000 H       1  UNL1        0.0345
     19 H           4.9230    3.3326    0.0000 H       1  UNL1        0.0267
     20 H           4.5244    2.6423    0.0000 H       1  UNL1        0.0267
     21 H           5.6720   -1.5600    0.0000 H       1  UNL1        0.0691
     22 H           2.2269   -1.2131    0.0000 H       1  UNL1        0.0280
     23 H           2.0000   -2.0600    0.0000 H       1  UNL1        0.0280
     24 H           2.8469   -2.2869    0.0000 H       1  UNL1        0.0280
     25 H           6.3110    2.7131    0.0000 H       1  UNL1        0.0230
     26 H           6.5380    3.5600    0.0000 H       1  UNL1        0.0230
     27 H           5.6910    3.7869    0.0000 H       1  UNL1        0.0230
     28 H           2.0000   -0.0600    0.0000 H       1  UNL1        0.2922
     29 H           6.5380   -0.0600    0.0000 H       1  UNL1        0.2922
     30 H           4.8250   -3.7869    0.0000 H       1  UNL1        0.0660
     31 H           5.6720   -3.5600    0.0000 H       1  UNL1        0.0660
     32 H           5.4450   -2.7131    0.0000 H       1  UNL1        0.0660
@<TRIPOS>BOND
     1     1    12    1
     2     1    16    1
     3     2     9    1
     4     2    28    1
     5     3    11    1
     6     3    29    1
     7     4     7    2
     8     5     7    1
     9     5     9   ar
    10     5    11   ar
    11     6     7    1
    12     6    10    1
    13     6    17    1
    14     6    18    1
    15     8     9   ar
    16     8    12   ar
    17     8    14    1
    18    10    15    1
    19    10    19    1
    20    10    20    1
    21    11    13   ar
    22    12    13   ar
    23    13    21    1
    24    14    22    1
    25    14    23    1
    26    14    24    1
    27    15    25    1
    28    15    26    1
    29    15    27    1
    30    16    30    1
    31    16    31    1
    32    16    32    1
