@<TRIPOS>MOLECULE
IMPHY016168
 22 23 0 0 0
SMALL
GASTEIGER

@<TRIPOS>ATOM
      1 C           2.0000    0.5000    0.0000 C.3     1  UNL1       -0.0488
      2 C           2.0000   -0.5000    0.0000 C.3     1  UNL1       -0.0488
      3 C           2.8660    1.0000    0.0000 C.3     1  UNL1       -0.0274
      4 C           2.8660   -1.0000    0.0000 C.3     1  UNL1       -0.0274
      5 C           3.7320    0.5000    0.0000 C.ar    1  UNL1       -0.0442
      6 C           3.7320   -0.5000    0.0000 C.ar    1  UNL1       -0.0442
      7 C           4.6260    1.0347    0.0000 C.ar    1  UNL1       -0.0583
      8 C           4.6260   -1.0347    0.0000 C.ar    1  UNL1       -0.0583
      9 C           5.5321    0.5208    0.0000 C.ar    1  UNL1       -0.0615
     10 C           5.5321   -0.5208    0.0000 C.ar    1  UNL1       -0.0615
     11 H           1.7880    1.0826    0.0000 H       1  UNL1        0.0268
     12 H           1.3894    0.3923    0.0000 H       1  UNL1        0.0268
     13 H           1.3894   -0.3923    0.0000 H       1  UNL1        0.0268
     14 H           1.7880   -1.0826    0.0000 H       1  UNL1        0.0268
     15 H           3.2646    1.4750    0.0000 H       1  UNL1        0.0313
     16 H           2.4675    1.4750    0.0000 H       1  UNL1        0.0313
     17 H           2.4675   -1.4750    0.0000 H       1  UNL1        0.0313
     18 H           3.2646   -1.4750    0.0000 H       1  UNL1        0.0313
     19 H           4.6188    1.6546    0.0000 H       1  UNL1        0.0620
     20 H           4.6188   -1.6546    0.0000 H       1  UNL1        0.0620
     21 H           6.0678    0.8329    0.0000 H       1  UNL1        0.0618
     22 H           6.0678   -0.8329    0.0000 H       1  UNL1        0.0618
@<TRIPOS>BOND
     1     1     2    1
     2     1     3    1
     3     1    11    1
     4     1    12    1
     5     2     4    1
     6     2    13    1
     7     2    14    1
     8     3     5    1
     9     3    15    1
    10     3    16    1
    11     4     6    1
    12     4    17    1
    13     4    18    1
    14     5     6   ar
    15     5     7   ar
    16     6     8   ar
    17     7     9   ar
    18     7    19    1
    19     8    10   ar
    20     8    20    1
    21     9    10   ar
    22     9    21    1
    23    10    22    1
