@<TRIPOS>MOLECULE
IMPHY016195
 20 19 0 0 0
SMALL
GASTEIGER

@<TRIPOS>ATOM
      1 O           4.5981   -0.5950    0.0000 O.3     1  UNL1       -0.3912
      2 C           4.5981    0.4050    0.0000 C.3     1  UNL1        0.0620
      3 C           5.4641    0.9050    0.0000 C.3     1  UNL1       -0.0086
      4 C           3.7320    0.9050    0.0000 C.3     1  UNL1       -0.0086
      5 C           6.3301    0.4050    0.0000 C.2     1  UNL1       -0.0887
      6 C           2.8660    0.4050    0.0000 C.2     1  UNL1       -0.0887
      7 C           7.1962    0.9050    0.0000 C.2     1  UNL1       -0.1025
      8 C           2.0000    0.9050    0.0000 C.2     1  UNL1       -0.1025
      9 H           5.1350    0.0950    0.0000 H       1  UNL1        0.0599
     10 H           5.8626    1.3800    0.0000 H       1  UNL1        0.0332
     11 H           5.0656    1.3800    0.0000 H       1  UNL1        0.0332
     12 H           4.1306    1.3800    0.0000 H       1  UNL1        0.0332
     13 H           3.3335    1.3800    0.0000 H       1  UNL1        0.0332
     14 H           6.3301   -0.2150    0.0000 H       1  UNL1        0.0567
     15 H           2.8660   -0.2150    0.0000 H       1  UNL1        0.0567
     16 H           4.0611   -0.9050    0.0000 H       1  UNL1        0.2098
     17 H           7.7331    0.5950    0.0000 H       1  UNL1        0.0532
     18 H           7.1962    1.5250    0.0000 H       1  UNL1        0.0532
     19 H           2.0000    1.5250    0.0000 H       1  UNL1        0.0532
     20 H           1.4631    0.5950    0.0000 H       1  UNL1        0.0532
@<TRIPOS>BOND
     1     1     2    1
     2     1    16    1
     3     2     3    1
     4     2     4    1
     5     2     9    1
     6     3     5    1
     7     3    10    1
     8     3    11    1
     9     4     6    1
    10     4    12    1
    11     4    13    1
    12     5     7    2
    13     5    14    1
    14     6     8    2
    15     6    15    1
    16     7    17    1
    17     7    18    1
    18     8    19    1
    19     8    20    1
