@<TRIPOS>MOLECULE
IMPHY003056
 39 42 0 0 0
SMALL
GASTEIGER

@<TRIPOS>ATOM
      1 O           3.5725   -0.7732    0.0000 O.3     1  UNL1       -0.3757
      2 O           2.5393   -0.1587    0.0000 O.3     1  UNL1       -0.5068
      3 N           6.9481    0.3688    0.0000 N.3     1  UNL1       -0.2850
      4 C           6.0786   -0.1332    0.0000 C.3     1  UNL1        0.0755
      5 C           5.0589   -0.3364    0.0000 C.3     1  UNL1        0.0039
      6 C           6.2886   -1.1091    0.0000 C.2     1  UNL1       -0.0256
      7 C           5.2090    0.3688    0.0000 C.ar    1  UNL1       -0.0160
      8 C           6.9481    1.3729    0.0000 C.3     1  UNL1        0.0043
      9 C           7.6882   -0.3010    0.0000 C.3     1  UNL1        0.0188
     10 C           4.5393   -1.0285    0.0000 C.3     1  UNL1        0.0790
     11 C           6.0786    1.8750    0.0000 C.3     1  UNL1       -0.0145
     12 C           5.2090    1.3729    0.0000 C.ar    1  UNL1       -0.0407
     13 C           7.2814   -1.2126    0.0000 C.2     1  UNL1       -0.0648
     14 C           5.7822   -1.7517    0.0000 C.2     1  UNL1       -0.0583
     15 C           4.6523   -1.9098    0.0000 C.2     1  UNL1       -0.0553
     16 C           4.3113   -0.1681    0.0000 C.ar    1  UNL1       -0.0147
     17 C           4.3113    1.9098    0.0000 C.ar    1  UNL1       -0.0548
     18 C           3.4015    0.3479    0.0000 C.ar    1  UNL1        0.1172
     19 C           3.4015    1.3938    0.0000 C.ar    1  UNL1       -0.0199
     20 C           2.8679   -1.4828    0.0000 C.3     1  UNL1        0.0372
     21 H           5.1106    0.2815    0.0000 H       1  UNL1        0.0318
     22 H           4.4794   -0.1158    0.0000 H       1  UNL1        0.0318
     23 H           7.5587    1.2653    0.0000 H       1  UNL1        0.0430
     24 H           7.1602    1.9555    0.0000 H       1  UNL1        0.0430
     25 H           8.2247   -0.6118    0.0000 H       1  UNL1        0.0470
     26 H           8.0536    0.1998    0.0000 H       1  UNL1        0.0470
     27 H           4.9192   -0.4429    0.0000 H       1  UNL1        0.0641
     28 H           6.4771    2.3499    0.0000 H       1  UNL1        0.0326
     29 H           5.6800    2.3499    0.0000 H       1  UNL1        0.0326
     30 H           7.5914   -1.7495    0.0000 H       1  UNL1        0.0588
     31 H           6.0910   -2.2894    0.0000 H       1  UNL1        0.0619
     32 H           4.2760   -2.4026    0.0000 H       1  UNL1        0.0598
     33 H           4.3185   -0.7881    0.0000 H       1  UNL1        0.0657
     34 H           4.3185    2.5298    0.0000 H       1  UNL1        0.0622
     35 H           2.8657    1.7059    0.0000 H       1  UNL1        0.0654
     36 H           2.4280   -1.0460    0.0000 H       1  UNL1        0.0524
     37 H           2.4311   -1.9228    0.0000 H       1  UNL1        0.0524
     38 H           3.3079   -1.9196    0.0000 H       1  UNL1        0.0524
     39 H           2.0000    0.1472    0.0000 H       1  UNL1        0.2921
@<TRIPOS>BOND
     1    10     1    1
     2     1    20    1
     3     2    18    1
     4     2    39    1
     5     3     4    1
     6     3     8    1
     7     3     9    1
     8     4     5    1
     9     4     6    1
    10     4     7    1
    11     5    10    1
    12     5    21    1
    13     5    22    1
    14     6    13    2
    15     6    14    1
    16     7    12   ar
    17     7    16   ar
    18     8    11    1
    19     8    23    1
    20     8    24    1
    21     9    13    1
    22     9    25    1
    23     9    26    1
    24    10    15    1
    25    10    27    1
    26    11    12    1
    27    11    28    1
    28    11    29    1
    29    12    17   ar
    30    13    30    1
    31    14    15    2
    32    14    31    1
    33    15    32    1
    34    16    18   ar
    35    16    33    1
    36    17    19   ar
    37    17    34    1
    38    18    19   ar
    39    19    35    1
    40    20    36    1
    41    20    37    1
    42    20    38    1
