@<TRIPOS>MOLECULE
IMPHY008090
 51 55 0 0 0
SMALL
GASTEIGER

@<TRIPOS>ATOM
      1 O           5.8776    0.8543    0.0000 O.3     1  UNL1       -0.4569
      2 O           3.9066    1.2700    0.0000 O.3     1  UNL1       -0.3868
      3 O           2.1162   -1.4578    0.0000 O.3     1  UNL1       -0.3842
      4 O           8.8222   -0.2463    0.0000 O.3     1  UNL1       -0.3881
      5 O           8.2626   -2.1068    0.0000 O.3     1  UNL1       -0.3891
      6 O           8.2994    1.4108    0.0000 O.2     1  UNL1       -0.2501
      7 O           4.8007    2.0827    0.0000 O.3     1  UNL1       -0.4804
      8 O           6.5267    1.9372    0.0000 O.2     1  UNL1       -0.2507
      9 C           4.8095   -0.0340    0.0000 C.3     1  UNL1        0.0232
     10 C           6.0235   -0.8796    0.0000 C.3     1  UNL1        0.1240
     11 C           5.1114   -0.9012    0.0000 C.3     1  UNL1        0.0087
     12 C           6.2865   -0.0056    0.0000 C.3     1  UNL1        0.0308
     13 C           5.5377    0.5152    0.0000 C.3     1  UNL1        0.0725
     14 C           7.2038    0.2104    0.0000 C.3     1  UNL1        0.1003
     15 C           4.1135   -0.8664    0.0000 C.3     1  UNL1       -0.0106
     16 C           3.9426    0.2707    0.0000 C.3     1  UNL1        0.0855
     17 C           3.0606   -1.1290    0.0000 C.3     1  UNL1        0.0898
     18 C           4.6212   -1.6777    0.0000 C.3     1  UNL1       -0.0430
     19 C           6.6612   -1.5942    0.0000 C.3     1  UNL1        0.0163
     20 C           3.7088   -1.7790    0.0000 C.3     1  UNL1       -0.0196
     21 C           7.8489   -0.4758    0.0000 C.3     1  UNL1        0.0970
     22 C           3.1650   -0.2164    0.0000 C.2     1  UNL1       -0.0168
     23 C           7.5774   -1.3784    0.0000 C.3     1  UNL1        0.0857
     24 C           7.4686    0.8543    0.0000 C.2     1  UNL1        0.3166
     25 C           5.6217    1.5117    0.0000 C.2     1  UNL1        0.3089
     26 C           8.1872    0.3916    0.0000 C.3     1  UNL1       -0.0465
     27 C           2.3614    0.3788    0.0000 C.2     1  UNL1       -0.0943
     28 H           5.4171   -1.4406    0.0000 H       1  UNL1        0.0346
     29 H           6.4025    0.6034    0.0000 H       1  UNL1        0.0359
     30 H           4.9949    0.8148    0.0000 H       1  UNL1        0.0424
     31 H           4.0706   -1.4849    0.0000 H       1  UNL1        0.0303
     32 H           4.6886   -1.0980    0.0000 H       1  UNL1        0.0303
     33 H           3.3949    0.5611    0.0000 H       1  UNL1        0.0647
     34 H           4.5506   -2.2937    0.0000 H       1  UNL1        0.0270
     35 H           5.2060   -1.8836    0.0000 H       1  UNL1        0.0270
     36 H           6.1369   -1.9250    0.0000 H       1  UNL1        0.0330
     37 H           6.9010   -2.1659    0.0000 H       1  UNL1        0.0330
     38 H           3.1834   -2.1081    0.0000 H       1  UNL1        0.0296
     39 H           3.9127   -2.3645    0.0000 H       1  UNL1        0.0296
     40 H           8.2738   -0.9273    0.0000 H       1  UNL1        0.0630
     41 H           7.3987   -1.9721    0.0000 H       1  UNL1        0.0621
     42 H           8.2995   -0.2181    0.0000 H       1  UNL1        0.0241
     43 H           8.7969    0.5039    0.0000 H       1  UNL1        0.0241
     44 H           8.0749    1.0013    0.0000 H       1  UNL1        0.0241
     45 H           3.3589    1.5605    0.0000 H       1  UNL1        0.2102
     46 H           2.0000   -2.0668    0.0000 H       1  UNL1        0.2106
     47 H           2.4318    0.9947    0.0000 H       1  UNL1        0.0536
     48 H           1.7927    0.1318    0.0000 H       1  UNL1        0.0536
     49 H           9.2471   -0.6978    0.0000 H       1  UNL1        0.2099
     50 H           8.0839   -2.7005    0.0000 H       1  UNL1        0.2099
     51 H           4.8528    2.7005    0.0000 H       1  UNL1        0.2951
@<TRIPOS>BOND
     1     1    10    1
     2     1    24    1
     3     2    16    1
     4     2    45    1
     5     3    17    1
     6     3    46    1
     7     4    21    1
     8     4    49    1
     9     5    23    1
    10     5    50    1
    11     6    24    2
    12     7    25    1
    13     7    51    1
    14     8    25    2
    15     9    11    1
    16     9    13    1
    17     9    15    1
    18     9    16    1
    19    10    11    1
    20    10    12    1
    21    10    19    1
    22    11    18    1
    23    11    28    1
    24    12    13    1
    25    12    14    1
    26    12    29    1
    27    13    25    1
    28    13    30    1
    29    14    21    1
    30    14    24    1
    31    14    26    1
    32    15    17    1
    33    15    31    1
    34    15    32    1
    35    16    22    1
    36    16    33    1
    37    17    20    1
    38    17    22    1
    39    18    20    1
    40    18    34    1
    41    18    35    1
    42    19    23    1
    43    19    36    1
    44    19    37    1
    45    20    38    1
    46    20    39    1
    47    21    23    1
    48    21    40    1
    49    22    27    2
    50    23    41    1
    51    26    42    1
    52    26    43    1
    53    26    44    1
    54    27    47    1
    55    27    48    1
