@<TRIPOS>MOLECULE
IMPHY009700
 42 41 0 0 0
SMALL
GASTEIGER

@<TRIPOS>ATOM
      1 O          13.2583    0.2500    0.0000 O.3     1  UNL1       -0.3950
      2 C           7.1962   -0.2500    0.0000 C.3     1  UNL1       -0.0531
      3 C           8.0622    0.2500    0.0000 C.3     1  UNL1       -0.0531
      4 C           6.3301    0.2500    0.0000 C.3     1  UNL1       -0.0531
      5 C           8.9282   -0.2500    0.0000 C.3     1  UNL1       -0.0531
      6 C           5.4641   -0.2500    0.0000 C.3     1  UNL1       -0.0531
      7 C           9.7942    0.2500    0.0000 C.3     1  UNL1       -0.0530
      8 C           4.5981    0.2500    0.0000 C.3     1  UNL1       -0.0531
      9 C          10.6603   -0.2500    0.0000 C.3     1  UNL1       -0.0510
     10 C           3.7320   -0.2500    0.0000 C.3     1  UNL1       -0.0533
     11 C          11.5263    0.2500    0.0000 C.3     1  UNL1       -0.0297
     12 C           2.8660    0.2500    0.0000 C.3     1  UNL1       -0.0559
     13 C          12.3923   -0.2500    0.0000 C.3     1  UNL1        0.0442
     14 C           2.0000   -0.2500    0.0000 C.3     1  UNL1       -0.0653
     15 H           6.7976   -0.7249    0.0000 H       1  UNL1        0.0265
     16 H           7.5947   -0.7249    0.0000 H       1  UNL1        0.0265
     17 H           8.4607    0.7249    0.0000 H       1  UNL1        0.0265
     18 H           7.6636    0.7249    0.0000 H       1  UNL1        0.0265
     19 H           6.7287    0.7249    0.0000 H       1  UNL1        0.0265
     20 H           5.9316    0.7249    0.0000 H       1  UNL1        0.0265
     21 H           8.5297   -0.7249    0.0000 H       1  UNL1        0.0265
     22 H           9.3267   -0.7249    0.0000 H       1  UNL1        0.0265
     23 H           5.0656   -0.7249    0.0000 H       1  UNL1        0.0265
     24 H           5.8626   -0.7249    0.0000 H       1  UNL1        0.0265
     25 H          10.1928    0.7249    0.0000 H       1  UNL1        0.0265
     26 H           9.3957    0.7249    0.0000 H       1  UNL1        0.0265
     27 H           4.9966    0.7249    0.0000 H       1  UNL1        0.0265
     28 H           4.1996    0.7249    0.0000 H       1  UNL1        0.0265
     29 H          10.2617   -0.7249    0.0000 H       1  UNL1        0.0266
     30 H          11.0588   -0.7249    0.0000 H       1  UNL1        0.0266
     31 H           3.3335   -0.7249    0.0000 H       1  UNL1        0.0265
     32 H           4.1306   -0.7249    0.0000 H       1  UNL1        0.0265
     33 H          11.9248    0.7249    0.0000 H       1  UNL1        0.0287
     34 H          11.1278    0.7249    0.0000 H       1  UNL1        0.0287
     35 H           3.2646    0.7249    0.0000 H       1  UNL1        0.0263
     36 H           2.4675    0.7249    0.0000 H       1  UNL1        0.0263
     37 H          11.9938   -0.7249    0.0000 H       1  UNL1        0.0557
     38 H          12.7908   -0.7249    0.0000 H       1  UNL1        0.0557
     39 H           1.6900    0.2869    0.0000 H       1  UNL1        0.0230
     40 H           1.4631   -0.5600    0.0000 H       1  UNL1        0.0230
     41 H           2.3100   -0.7869    0.0000 H       1  UNL1        0.0230
     42 H          13.7953   -0.0600    0.0000 H       1  UNL1        0.2094
@<TRIPOS>BOND
     1     1    13    1
     2     1    42    1
     3     2     3    1
     4     2     4    1
     5     2    15    1
     6     2    16    1
     7     3     5    1
     8     3    17    1
     9     3    18    1
    10     4     6    1
    11     4    19    1
    12     4    20    1
    13     5     7    1
    14     5    21    1
    15     5    22    1
    16     6     8    1
    17     6    23    1
    18     6    24    1
    19     7     9    1
    20     7    25    1
    21     7    26    1
    22     8    10    1
    23     8    27    1
    24     8    28    1
    25     9    11    1
    26     9    29    1
    27     9    30    1
    28    10    12    1
    29    10    31    1
    30    10    32    1
    31    11    13    1
    32    11    33    1
    33    11    34    1
    34    12    14    1
    35    12    35    1
    36    12    36    1
    37    13    37    1
    38    13    38    1
    39    14    39    1
    40    14    40    1
    41    14    41    1
