@<TRIPOS>MOLECULE
IMPHY012278
 37 37 0 0 0
SMALL
GASTEIGER

@<TRIPOS>ATOM
      1 O           2.0000   -3.1900    0.0000 O.3     1  UNL1       -0.3891
      2 O           5.4641    3.8100    0.0000 O.2     1  UNL1       -0.3007
      3 C           4.5981    0.3100    0.0000 C.2     1  UNL1       -0.0734
      4 C           4.5981    2.3100    0.0000 C.3     1  UNL1        0.0182
      5 C           3.7320    0.8100    0.0000 C.3     1  UNL1       -0.0311
      6 C           3.7320    1.8100    0.0000 C.3     1  UNL1       -0.0398
      7 C           4.5981   -0.6900    0.0000 C.3     1  UNL1       -0.0317
      8 C           3.7320   -1.1900    0.0000 C.3     1  UNL1       -0.0468
      9 C           5.4641    1.8100    0.0000 C.3     1  UNL1       -0.0252
     10 C           3.7320   -2.1900    0.0000 C.3     1  UNL1       -0.0242
     11 C           2.8660   -2.6900    0.0000 C.3     1  UNL1        0.0605
     12 C           5.4641    0.8100    0.0000 C.2     1  UNL1       -0.0841
     13 C           3.3660   -3.5560    0.0000 C.3     1  UNL1       -0.0363
     14 C           2.3660   -1.8240    0.0000 C.3     1  UNL1       -0.0363
     15 C           4.5981    3.3100    0.0000 C.2     1  UNL1        0.1237
     16 H           5.1350    2.6200    0.0000 H       1  UNL1        0.0378
     17 H           3.1215    0.9177    0.0000 H       1  UNL1        0.0310
     18 H           3.5200    0.2274    0.0000 H       1  UNL1        0.0310
     19 H           3.5200    2.3926    0.0000 H       1  UNL1        0.0275
     20 H           3.1215    1.7023    0.0000 H       1  UNL1        0.0275
     21 H           4.8101   -1.2726    0.0000 H       1  UNL1        0.0310
     22 H           5.2087   -0.5823    0.0000 H       1  UNL1        0.0310
     23 H           3.5200   -0.6074    0.0000 H       1  UNL1        0.0269
     24 H           3.1215   -1.2977    0.0000 H       1  UNL1        0.0269
     25 H           6.0747    1.7023    0.0000 H       1  UNL1        0.0314
     26 H           5.6762    2.3926    0.0000 H       1  UNL1        0.0314
     27 H           3.9441   -2.7726    0.0000 H       1  UNL1        0.0293
     28 H           4.3426   -2.0823    0.0000 H       1  UNL1        0.0293
     29 H           6.0010    0.5000    0.0000 H       1  UNL1        0.0572
     30 H           2.8291   -3.8660    0.0000 H       1  UNL1        0.0257
     31 H           3.6760   -4.0930    0.0000 H       1  UNL1        0.0257
     32 H           3.9030   -3.2460    0.0000 H       1  UNL1        0.0257
     33 H           2.9030   -1.5140    0.0000 H       1  UNL1        0.0257
     34 H           2.0560   -1.2870    0.0000 H       1  UNL1        0.0257
     35 H           1.8291   -2.1340    0.0000 H       1  UNL1        0.0257
     36 H           4.0611    3.6200    0.0000 H       1  UNL1        0.1029
     37 H           2.0000   -3.8100    0.0000 H       1  UNL1        0.2101
@<TRIPOS>BOND
     1     1    11    1
     2     1    37    1
     3     2    15    2
     4     3     5    1
     5     3     7    1
     6     3    12    2
     7     4     6    1
     8     4     9    1
     9     4    15    1
    10     4    16    1
    11     5     6    1
    12     5    17    1
    13     5    18    1
    14     6    19    1
    15     6    20    1
    16     7     8    1
    17     7    21    1
    18     7    22    1
    19     8    10    1
    20     8    23    1
    21     8    24    1
    22     9    12    1
    23     9    25    1
    24     9    26    1
    25    10    11    1
    26    10    27    1
    27    10    28    1
    28    11    13    1
    29    11    14    1
    30    12    29    1
    31    13    30    1
    32    13    31    1
    33    13    32    1
    34    14    33    1
    35    14    34    1
    36    14    35    1
    37    15    36    1
