@<TRIPOS>MOLECULE
IMPHY012923
 26 27 0 0 0
SMALL
GASTEIGER

@<TRIPOS>ATOM
      1 O           7.2764    0.3647    0.0000 O.3     1  UNL1       -0.4489
      2 O           7.2764   -1.2447    0.0000 O.3     1  UNL1       -0.4525
      3 O           5.4641    1.5600    0.0000 O.3     1  UNL1       -0.4913
      4 C           6.3301    0.0600    0.0000 C.ar    1  UNL1        0.2075
      5 C           6.3301   -0.9400    0.0000 C.ar    1  UNL1        0.1705
      6 C           5.4641    0.5600    0.0000 C.ar    1  UNL1        0.1659
      7 C           4.5981   -0.9400    0.0000 C.ar    1  UNL1       -0.0182
      8 C           5.4641   -1.4400    0.0000 C.ar    1  UNL1       -0.0088
      9 C           4.5981    0.0600    0.0000 C.ar    1  UNL1       -0.0089
     10 C           7.8600   -0.4400    0.0000 C.3     1  UNL1        0.2334
     11 C           3.7320   -1.4400    0.0000 C.2     1  UNL1       -0.0586
     12 C           2.8660   -0.9400    0.0000 C.2     1  UNL1       -0.0865
     13 C           4.5981    2.0600    0.0000 C.3     1  UNL1        0.0790
     14 C           2.0000   -1.4400    0.0000 C.3     1  UNL1       -0.0465
     15 H           5.4641   -2.0600    0.0000 H       1  UNL1        0.0661
     16 H           4.0611    0.3700    0.0000 H       1  UNL1        0.0661
     17 H           8.3208   -0.8547    0.0000 H       1  UNL1        0.1166
     18 H           8.3208   -0.0253    0.0000 H       1  UNL1        0.1166
     19 H           3.7320   -2.0600    0.0000 H       1  UNL1        0.0620
     20 H           2.8660   -0.3200    0.0000 H       1  UNL1        0.0569
     21 H           4.9081    2.5969    0.0000 H       1  UNL1        0.0660
     22 H           4.0611    2.3700    0.0000 H       1  UNL1        0.0660
     23 H           4.2881    1.5231    0.0000 H       1  UNL1        0.0660
     24 H           1.6900   -0.9031    0.0000 H       1  UNL1        0.0272
     25 H           1.4631   -1.7500    0.0000 H       1  UNL1        0.0272
     26 H           2.3100   -1.9769    0.0000 H       1  UNL1        0.0272
@<TRIPOS>BOND
     1     1     4    1
     2     1    10    1
     3     2     5    1
     4     2    10    1
     5     3     6    1
     6     3    13    1
     7     4     5   ar
     8     4     6   ar
     9     5     8   ar
    10     6     9   ar
    11     7     8   ar
    12     7     9   ar
    13     7    11    1
    14     8    15    1
    15     9    16    1
    16    10    17    1
    17    10    18    1
    18    11    12    2
    19    11    19    1
    20    12    14    1
    21    12    20    1
    22    13    21    1
    23    13    22    1
    24    13    23    1
    25    14    24    1
    26    14    25    1
    27    14    26    1
