@<TRIPOS>MOLECULE
IMPHY017694
 20 19 0 0 0
SMALL
GASTEIGER

@<TRIPOS>ATOM
      1 O           3.7320    0.2500    0.0000 O.3     1  UNL1       -0.4649
      2 O           4.5981   -1.2500    0.0000 O.2     1  UNL1       -0.2508
      3 O           8.0622   -0.2500    0.0000 O.3     1  UNL1       -0.4806
      4 O           7.1962    1.2500    0.0000 O.2     1  UNL1       -0.2510
      5 C           5.4641    0.2500    0.0000 C.3     1  UNL1        0.0550
      6 C           6.3301   -0.2500    0.0000 C.3     1  UNL1        0.0548
      7 C           4.5981   -0.2500    0.0000 C.2     1  UNL1        0.3076
      8 C           2.8660   -0.2500    0.0000 C.3     1  UNL1        0.0896
      9 C           7.1962    0.2500    0.0000 C.2     1  UNL1        0.3052
     10 C           2.0000    0.2500    0.0000 C.3     1  UNL1       -0.0306
     11 H           5.8626    0.7249    0.0000 H       1  UNL1        0.0383
     12 H           5.0656    0.7249    0.0000 H       1  UNL1        0.0383
     13 H           5.9316   -0.7249    0.0000 H       1  UNL1        0.0383
     14 H           6.7287   -0.7249    0.0000 H       1  UNL1        0.0383
     15 H           2.4675   -0.7249    0.0000 H       1  UNL1        0.0694
     16 H           3.2646   -0.7249    0.0000 H       1  UNL1        0.0694
     17 H           2.3100    0.7869    0.0000 H       1  UNL1        0.0262
     18 H           1.4631    0.5600    0.0000 H       1  UNL1        0.0262
     19 H           1.6900   -0.2869    0.0000 H       1  UNL1        0.0262
     20 H           8.5991    0.0600    0.0000 H       1  UNL1        0.2951
@<TRIPOS>BOND
     1     1     7    1
     2     1     8    1
     3     2     7    2
     4     3     9    1
     5     3    20    1
     6     4     9    2
     7     5     6    1
     8     5     7    1
     9     5    11    1
    10     5    12    1
    11     6     9    1
    12     6    13    1
    13     6    14    1
    14     8    10    1
    15     8    15    1
    16     8    16    1
    17    10    17    1
    18    10    18    1
    19    10    19    1
