@<TRIPOS>MOLECULE
IMPHY005572
 24 25 0 0 0
SMALL
GASTEIGER

@<TRIPOS>ATOM
      1 O           2.0000   -0.5000    0.0000 O.2     1  UNL1       -0.4301
      2 O           2.8660   -2.0000    0.0000 O.2     1  UNL1       -0.2449
      3 C           4.6783   -0.8047    0.0000 C.3     1  UNL1       -0.0114
      4 C           5.2619    0.0000    0.0000 C.3     1  UNL1       -0.0422
      5 C           4.6783    0.8047    0.0000 C.3     1  UNL1       -0.0263
      6 C           3.7320   -0.5000    0.0000 C.ar    1  UNL1        0.0433
      7 C           3.7320    0.5000    0.0000 C.ar    1  UNL1       -0.0313
      8 C           4.9889   -1.7552    0.0000 C.3     1  UNL1       -0.0582
      9 C           2.8660    1.0000    0.0000 C.ar    1  UNL1       -0.0118
     10 C           2.8660   -1.0000    0.0000 C.ar    1  UNL1        0.3404
     11 C           2.0000    0.5000    0.0000 C.ar    1  UNL1        0.0991
     12 C           2.8660    2.0000    0.0000 C.3     1  UNL1       -0.0366
     13 H           5.5180   -0.9366    0.0000 H       1  UNL1        0.0349
     14 H           5.7227   -0.4147    0.0000 H       1  UNL1        0.0274
     15 H           5.7227    0.4147    0.0000 H       1  UNL1        0.0274
     16 H           5.2156    1.1140    0.0000 H       1  UNL1        0.0314
     17 H           4.4272    1.3716    0.0000 H       1  UNL1        0.0314
     18 H           4.3996   -1.9479    0.0000 H       1  UNL1        0.0236
     19 H           5.1815   -2.3446    0.0000 H       1  UNL1        0.0236
     20 H           5.5783   -1.5626    0.0000 H       1  UNL1        0.0236
     21 H           1.4631    0.8100    0.0000 H       1  UNL1        0.1033
     22 H           3.4860    2.0000    0.0000 H       1  UNL1        0.0279
     23 H           2.8660    2.6200    0.0000 H       1  UNL1        0.0279
     24 H           2.2460    2.0000    0.0000 H       1  UNL1        0.0279
@<TRIPOS>BOND
     1     1    10   ar
     2     1    11   ar
     3     2    10    2
     4     3     4    1
     5     3     6    1
     6     3     8    1
     7     3    13    1
     8     4     5    1
     9     4    14    1
    10     4    15    1
    11     5     7    1
    12     5    16    1
    13     5    17    1
    14     6     7   ar
    15     6    10   ar
    16     7     9   ar
    17     8    18    1
    18     8    19    1
    19     8    20    1
    20     9    11   ar
    21     9    12    1
    22    11    21    1
    23    12    22    1
    24    12    23    1
    25    12    24    1
