@<TRIPOS>MOLECULE
IMPHY002540
 46 50 0 0 0
SMALL
GASTEIGER

@<TRIPOS>ATOM
      1 O          10.5661    0.5679    0.0000 O.3     1  UNL1       -0.4815
      2 O           7.0301    0.5957    0.0000 O.2     1  UNL1       -0.4502
      3 O           5.2599   -1.4631    0.0000 O.3     1  UNL1       -0.4883
      4 O           2.5805    0.2908    0.0000 O.3     1  UNL1       -0.4526
      5 O           2.5867    1.9002    0.0000 O.3     1  UNL1       -0.4526
      6 O           7.0416   -2.4736    0.0000 O.2     1  UNL1       -0.2831
      7 C          10.5741    1.6095    0.0000 C.3     1  UNL1        0.1235
      8 C           8.7901    0.5610    0.0000 C.ar    1  UNL1        0.0595
      9 C           9.6561    0.0610    0.0000 C.ar    1  UNL1        0.1324
     10 C           7.9240    0.0610    0.0000 C.ar    1  UNL1        0.1501
     11 C           9.6720    2.1303    0.0000 C.2     1  UNL1       -0.0408
     12 C           8.7740    1.6025    0.0000 C.2     1  UNL1       -0.0478
     13 C           7.9240   -0.9390    0.0000 C.ar    1  UNL1        0.0685
     14 C          11.0774    2.4736    0.0000 C.3     1  UNL1       -0.0215
     15 C          11.5741    1.6056    0.0000 C.3     1  UNL1       -0.0215
     16 C           9.6561   -0.9390    0.0000 C.ar    1  UNL1       -0.0184
     17 C           6.1240    0.0818    0.0000 C.ar    1  UNL1        0.1810
     18 C           8.7901   -1.4390    0.0000 C.ar    1  UNL1       -0.0438
     19 C           7.0301   -1.4736    0.0000 C.ar    1  UNL1        0.2346
     20 C           6.1240   -0.9598    0.0000 C.ar    1  UNL1        0.2105
     21 C           5.2599    0.5852    0.0000 C.ar    1  UNL1        0.0247
     22 C           4.3920    0.0885    0.0000 C.ar    1  UNL1       -0.0054
     23 C           3.5279    0.5919    0.0000 C.ar    1  UNL1        0.1669
     24 C           5.2638    1.5852    0.0000 C.ar    1  UNL1       -0.0473
     25 C           3.5317    1.5918    0.0000 C.ar    1  UNL1        0.1663
     26 C           4.3997    2.0885    0.0000 C.ar    1  UNL1       -0.0155
     27 C           2.0000    1.0978    0.0000 C.3     1  UNL1        0.2332
     28 C           5.2638   -2.4631    0.0000 C.3     1  UNL1        0.0791
     29 H           9.6696    2.7503    0.0000 H       1  UNL1        0.0611
     30 H           8.2335    1.9063    0.0000 H       1  UNL1        0.0624
     31 H          11.6132    2.1615    0.0000 H       1  UNL1        0.0271
     32 H          11.3895    3.0093    0.0000 H       1  UNL1        0.0271
     33 H          10.5417    2.7856    0.0000 H       1  UNL1        0.0271
     34 H          11.5717    0.9856    0.0000 H       1  UNL1        0.0271
     35 H          12.1941    1.6032    0.0000 H       1  UNL1        0.0271
     36 H          11.5765    2.2256    0.0000 H       1  UNL1        0.0271
     37 H          10.1930   -1.2490    0.0000 H       1  UNL1        0.0654
     38 H           8.7901   -2.0590    0.0000 H       1  UNL1        0.0627
     39 H           4.3896   -0.5315    0.0000 H       1  UNL1        0.0662
     40 H           5.8019    1.8931    0.0000 H       1  UNL1        0.0626
     41 H           4.4021    2.7085    0.0000 H       1  UNL1        0.0655
     42 H           1.5407    1.5143    0.0000 H       1  UNL1        0.1166
     43 H           1.5375    0.6848    0.0000 H       1  UNL1        0.1166
     44 H           4.6438   -2.4655    0.0000 H       1  UNL1        0.0660
     45 H           5.2662   -3.0831    0.0000 H       1  UNL1        0.0660
     46 H           5.8838   -2.4607    0.0000 H       1  UNL1        0.0660
@<TRIPOS>BOND
     1     1     7    1
     2     1     9    1
     3     2    10   ar
     4     2    17   ar
     5     3    20    1
     6     3    28    1
     7     4    23    1
     8     4    27    1
     9     5    25    1
    10     5    27    1
    11     6    19    2
    12     7    11    1
    13     7    14    1
    14     7    15    1
    15     8     9   ar
    16     8    10   ar
    17     8    12    1
    18     9    16   ar
    19    10    13   ar
    20    11    12    2
    21    11    29    1
    22    12    30    1
    23    13    18   ar
    24    13    19   ar
    25    14    31    1
    26    14    32    1
    27    14    33    1
    28    15    34    1
    29    15    35    1
    30    15    36    1
    31    16    18   ar
    32    16    37    1
    33    17    20   ar
    34    17    21    1
    35    18    38    1
    36    19    20   ar
    37    21    22   ar
    38    21    24   ar
    39    22    23   ar
    40    22    39    1
    41    23    25   ar
    42    24    26   ar
    43    24    40    1
    44    25    26   ar
    45    26    41    1
    46    27    42    1
    47    27    43    1
    48    28    44    1
    49    28    45    1
    50    28    46    1
