@<TRIPOS>MOLECULE
IMPHY007281
 40 41 0 0 0
SMALL
GASTEIGER

@<TRIPOS>ATOM
      1 O           2.5369    0.7327    0.0000 O.3     1  UNL1       -0.3907
      2 C           6.8671   -0.7673    0.0000 C.3     1  UNL1       -0.0108
      3 C           6.8671    0.2327    0.0000 C.2     1  UNL1       -0.0641
      4 C           6.0010   -1.2673    0.0000 C.3     1  UNL1       -0.0434
      5 C           7.7610   -1.3020    0.0000 C.3     1  UNL1       -0.0436
      6 C           5.1350    0.2327    0.0000 C.3     1  UNL1       -0.0143
      7 C           6.0010    0.7327    0.0000 C.3     1  UNL1       -0.0244
      8 C           5.1350   -0.7673    0.0000 C.3     1  UNL1       -0.0454
      9 C           8.6671   -0.7881    0.0000 C.3     1  UNL1       -0.0486
     10 C           7.7610    0.7674    0.0000 C.2     1  UNL1       -0.0728
     11 C           6.8671   -1.7673    0.0000 C.3     1  UNL1       -0.0558
     12 C           8.6671    0.2535    0.0000 C.3     1  UNL1       -0.0317
     13 C           4.2690    0.7327    0.0000 C.2     1  UNL1       -0.0482
     14 C           7.7494    1.7673    0.0000 C.3     1  UNL1       -0.0435
     15 C           3.4030    0.2327    0.0000 C.3     1  UNL1        0.0653
     16 C           4.2690    1.7327    0.0000 C.2     1  UNL1       -0.0970
     17 H           5.6025   -1.7422    0.0000 H       1  UNL1        0.0274
     18 H           6.3996   -1.7422    0.0000 H       1  UNL1        0.0274
     19 H           7.3564   -1.7718    0.0000 H       1  UNL1        0.0274
     20 H           8.1546   -1.7810    0.0000 H       1  UNL1        0.0274
     21 H           5.1350    0.8527    0.0000 H       1  UNL1        0.0349
     22 H           6.3996    1.2076    0.0000 H       1  UNL1        0.0316
     23 H           5.6025    1.2076    0.0000 H       1  UNL1        0.0316
     24 H           4.5244   -0.6596    0.0000 H       1  UNL1        0.0271
     25 H           4.9230   -1.3499    0.0000 H       1  UNL1        0.0271
     26 H           8.8761   -1.3718    0.0000 H       1  UNL1        0.0269
     27 H           9.2779   -0.6820    0.0000 H       1  UNL1        0.0269
     28 H           6.2471   -1.7673    0.0000 H       1  UNL1        0.0238
     29 H           6.8671   -2.3873    0.0000 H       1  UNL1        0.0238
     30 H           7.4871   -1.7673    0.0000 H       1  UNL1        0.0238
     31 H           9.2779    0.1474    0.0000 H       1  UNL1        0.0310
     32 H           8.8761    0.8372    0.0000 H       1  UNL1        0.0310
     33 H           8.3694    1.7745    0.0000 H       1  UNL1        0.0274
     34 H           7.7423    2.3873    0.0000 H       1  UNL1        0.0274
     35 H           7.1295    1.7601    0.0000 H       1  UNL1        0.0274
     36 H           3.0044   -0.2422    0.0000 H       1  UNL1        0.0604
     37 H           3.8015   -0.2422    0.0000 H       1  UNL1        0.0604
     38 H           4.8059    2.0427    0.0000 H       1  UNL1        0.0535
     39 H           3.7320    2.0427    0.0000 H       1  UNL1        0.0535
     40 H           2.0000    0.4227    0.0000 H       1  UNL1        0.2098
@<TRIPOS>BOND
     1     1    15    1
     2     1    40    1
     3     2     3    1
     4     2     4    1
     5     2     5    1
     6     2    11    1
     7     3     7    1
     8     3    10    2
     9     4     8    1
    10     4    17    1
    11     4    18    1
    12     5     9    1
    13     5    19    1
    14     5    20    1
    15     6     7    1
    16     6     8    1
    17     6    13    1
    18     6    21    1
    19     7    22    1
    20     7    23    1
    21     8    24    1
    22     8    25    1
    23     9    12    1
    24     9    26    1
    25     9    27    1
    26    10    12    1
    27    10    14    1
    28    11    28    1
    29    11    29    1
    30    11    30    1
    31    12    31    1
    32    12    32    1
    33    13    15    1
    34    13    16    2
    35    14    33    1
    36    14    34    1
    37    14    35    1
    38    15    36    1
    39    15    37    1
    40    16    38    1
    41    16    39    1
