@<TRIPOS>MOLECULE
IMPHY016954
 21 21 0 0 0
SMALL
GASTEIGER

@<TRIPOS>ATOM
      1 O           3.7320    1.7500    0.0000 O.3     1  UNL1       -0.4949
      2 O           2.0000   -1.2500    0.0000 O.3     1  UNL1       -0.4949
      3 O           5.4641   -1.2500    0.0000 O.3     1  UNL1       -0.5065
      4 C           3.7320    0.7500    0.0000 C.ar    1  UNL1        0.1270
      5 C           2.8660   -0.7500    0.0000 C.ar    1  UNL1        0.1270
      6 C           2.8660    0.2500    0.0000 C.ar    1  UNL1        0.0220
      7 C           4.5981    0.2500    0.0000 C.ar    1  UNL1        0.0218
      8 C           3.7320   -1.2500    0.0000 C.ar    1  UNL1        0.0218
      9 C           4.5981   -0.7500    0.0000 C.ar    1  UNL1        0.1238
     10 C           4.5981    2.2500    0.0000 C.3     1  UNL1        0.0788
     11 C           2.0000   -2.2500    0.0000 C.3     1  UNL1        0.0788
     12 H           2.3291    0.5600    0.0000 H       1  UNL1        0.0691
     13 H           5.1350    0.5600    0.0000 H       1  UNL1        0.0691
     14 H           3.7320   -1.8700    0.0000 H       1  UNL1        0.0691
     15 H           4.9081    1.7131    0.0000 H       1  UNL1        0.0660
     16 H           5.1350    2.5600    0.0000 H       1  UNL1        0.0660
     17 H           4.2881    2.7869    0.0000 H       1  UNL1        0.0660
     18 H           1.3800   -2.2500    0.0000 H       1  UNL1        0.0660
     19 H           2.0000   -2.8700    0.0000 H       1  UNL1        0.0660
     20 H           2.6200   -2.2500    0.0000 H       1  UNL1        0.0660
     21 H           5.4641   -1.8700    0.0000 H       1  UNL1        0.2921
@<TRIPOS>BOND
     1     1     4    1
     2     1    10    1
     3     2     5    1
     4     2    11    1
     5     3     9    1
     6     3    21    1
     7     4     6   ar
     8     4     7   ar
     9     5     6   ar
    10     5     8   ar
    11     6    12    1
    12     7     9   ar
    13     7    13    1
    14     8     9   ar
    15     8    14    1
    16    10    15    1
    17    10    16    1
    18    10    17    1
    19    11    18    1
    20    11    19    1
    21    11    20    1
