@<TRIPOS>MOLECULE
IMPHY004443
 55 58 0 0 0
SMALL
GASTEIGER

@<TRIPOS>ATOM
      1 O           3.9061   -0.6117    0.0000 O.3     1  UNL1       -0.4811
      2 O           7.4260   -0.6117    0.0000 O.2     1  UNL1       -0.4616
      3 O           5.6660    2.4229    0.0000 O.3     1  UNL1       -0.5052
      4 O           7.4144    2.4575    0.0000 O.2     1  UNL1       -0.2863
      5 O          10.0680   -0.0496    0.0000 O.3     1  UNL1       -0.5060
      6 O          11.7884    2.9571    0.0000 O.3     1  UNL1       -0.5066
      7 C           3.0000   -0.0979    0.0000 C.3     1  UNL1        0.1235
      8 C           4.8000   -0.0771    0.0000 C.ar    1  UNL1        0.1393
      9 C           5.6660   -0.5771    0.0000 C.ar    1  UNL1        0.0417
     10 C           4.8000    0.9229    0.0000 C.ar    1  UNL1        0.0591
     11 C           6.5320   -0.0771    0.0000 C.ar    1  UNL1        0.1489
     12 C           6.5320    0.9229    0.0000 C.ar    1  UNL1        0.1069
     13 C           3.0000    0.9437    0.0000 C.2     1  UNL1       -0.0408
     14 C           5.6660    1.4229    0.0000 C.ar    1  UNL1        0.1418
     15 C           3.9061    1.4576    0.0000 C.2     1  UNL1       -0.0478
     16 C           5.6660   -1.5771    0.0000 C.3     1  UNL1       -0.0022
     17 C           2.0000   -0.1017    0.0000 C.3     1  UNL1       -0.0215
     18 C           2.5033   -0.9658    0.0000 C.3     1  UNL1       -0.0215
     19 C           7.4260    1.4576    0.0000 C.ar    1  UNL1        0.2038
     20 C           8.3321    0.9437    0.0000 C.ar    1  UNL1        0.0679
     21 C           4.8000   -2.0771    0.0000 C.2     1  UNL1       -0.0807
     22 C           8.3321   -0.0979    0.0000 C.ar    1  UNL1        0.1040
     23 C           9.1962    1.4471    0.0000 C.ar    1  UNL1        0.0304
     24 C           4.8000   -3.0771    0.0000 C.2     1  UNL1       -0.0793
     25 C          10.0641    0.9504    0.0000 C.ar    1  UNL1        0.1282
     26 C           9.1923    2.4471    0.0000 C.ar    1  UNL1       -0.0469
     27 C           3.9340   -3.5771    0.0000 C.3     1  UNL1       -0.0440
     28 C           5.6660   -3.5771    0.0000 C.3     1  UNL1       -0.0440
     29 C          10.9282    1.4538    0.0000 C.ar    1  UNL1        0.0219
     30 C          10.0564    2.9504    0.0000 C.ar    1  UNL1       -0.0194
     31 C          10.9243    2.4537    0.0000 C.ar    1  UNL1        0.1204
     32 H           2.4643    1.2558    0.0000 H       1  UNL1        0.0611
     33 H           3.9132    2.0776    0.0000 H       1  UNL1        0.0624
     34 H           5.8781   -2.1597    0.0000 H       1  UNL1        0.0358
     35 H           6.2766   -1.4694    0.0000 H       1  UNL1        0.0358
     36 H           1.9652   -0.6579    0.0000 H       1  UNL1        0.0271
     37 H           2.1954   -1.5040    0.0000 H       1  UNL1        0.0271
     38 H           3.0415   -1.2738    0.0000 H       1  UNL1        0.0271
     39 H           1.9976    0.5183    0.0000 H       1  UNL1        0.0271
     40 H           1.3800   -0.1041    0.0000 H       1  UNL1        0.0271
     41 H           2.0024   -0.7217    0.0000 H       1  UNL1        0.0271
     42 H           4.2631   -1.7671    0.0000 H       1  UNL1        0.0575
     43 H           8.8678   -0.4100    0.0000 H       1  UNL1        0.1037
     44 H           5.1291    2.7329    0.0000 H       1  UNL1        0.2922
     45 H           8.6542    2.7550    0.0000 H       1  UNL1        0.0626
     46 H           3.6240   -3.0401    0.0000 H       1  UNL1        0.0274
     47 H           3.3970   -3.8871    0.0000 H       1  UNL1        0.0274
     48 H           4.2440   -4.1140    0.0000 H       1  UNL1        0.0274
     49 H           5.3560   -4.1140    0.0000 H       1  UNL1        0.0274
     50 H           6.2030   -3.8871    0.0000 H       1  UNL1        0.0274
     51 H           5.9760   -3.0401    0.0000 H       1  UNL1        0.0274
     52 H          11.4663    1.1458    0.0000 H       1  UNL1        0.0691
     53 H          10.0540    3.5704    0.0000 H       1  UNL1        0.0654
     54 H          10.6061   -0.3575    0.0000 H       1  UNL1        0.2922
     55 H          11.7860    3.5771    0.0000 H       1  UNL1        0.2921
@<TRIPOS>BOND
     1     1     7    1
     2     1     8    1
     3     2    11   ar
     4     2    22   ar
     5     3    14    1
     6     3    44    1
     7     4    19    2
     8     5    25    1
     9     5    54    1
    10     6    31    1
    11     6    55    1
    12     7    13    1
    13     7    17    1
    14     7    18    1
    15     8     9   ar
    16     8    10   ar
    17     9    11   ar
    18     9    16    1
    19    10    14   ar
    20    10    15    1
    21    11    12   ar
    22    12    14   ar
    23    12    19   ar
    24    13    15    2
    25    13    32    1
    26    15    33    1
    27    16    21    1
    28    16    34    1
    29    16    35    1
    30    17    39    1
    31    17    40    1
    32    17    41    1
    33    18    36    1
    34    18    37    1
    35    18    38    1
    36    19    20   ar
    37    20    22   ar
    38    20    23    1
    39    21    24    2
    40    21    42    1
    41    22    43    1
    42    23    25   ar
    43    23    26   ar
    44    24    27    1
    45    24    28    1
    46    25    29   ar
    47    26    30   ar
    48    26    45    1
    49    27    46    1
    50    27    47    1
    51    27    48    1
    52    28    49    1
    53    28    50    1
    54    28    51    1
    55    29    31   ar
    56    29    52    1
    57    30    31   ar
    58    30    53    1
