@<TRIPOS>MOLECULE
IMPHY016953
 39 40 0 0 0
SMALL
GASTEIGER

@<TRIPOS>ATOM
      1 C           2.8660   -0.7500    0.0000 C.3     1  UNL1       -0.0316
      2 C           3.7320   -0.2500    0.0000 C.3     1  UNL1       -0.0126
      3 C           2.0000   -0.2500    0.0000 C.3     1  UNL1       -0.0457
      4 C           3.7320    0.7500    0.0000 C.2     1  UNL1       -0.0632
      5 C           2.8660   -1.7500    0.0000 C.3     1  UNL1       -0.0433
      6 C           4.6260   -0.7847    0.0000 C.3     1  UNL1       -0.0252
      7 C           2.0000    0.7500    0.0000 C.3     1  UNL1       -0.0315
      8 C           2.8660    1.2500    0.0000 C.2     1  UNL1       -0.0728
      9 C           4.6260    1.2847    0.0000 C.3     1  UNL1       -0.0128
     10 C           5.5321   -0.2708    0.0000 C.2     1  UNL1       -0.0757
     11 C           5.5321    0.7708    0.0000 C.2     1  UNL1       -0.0810
     12 C           2.0000   -2.2500    0.0000 C.3     1  UNL1       -0.0624
     13 C           3.7320   -2.2500    0.0000 C.3     1  UNL1       -0.0624
     14 C           2.8660    2.2500    0.0000 C.3     1  UNL1       -0.0435
     15 C           6.3961   -0.7742    0.0000 C.3     1  UNL1       -0.0438
     16 H           2.3291   -1.0600    0.0000 H       1  UNL1        0.0309
     17 H           3.7273   -0.8700    0.0000 H       1  UNL1        0.0352
     18 H           1.3894   -0.1423    0.0000 H       1  UNL1        0.0271
     19 H           1.7880   -0.8326    0.0000 H       1  UNL1        0.0271
     20 H           2.8660   -2.3700    0.0000 H       1  UNL1        0.0298
     21 H           4.2214   -1.2544    0.0000 H       1  UNL1        0.0316
     22 H           5.0196   -1.2637    0.0000 H       1  UNL1        0.0316
     23 H           1.7880    1.3326    0.0000 H       1  UNL1        0.0310
     24 H           1.3894    0.6423    0.0000 H       1  UNL1        0.0310
     25 H           5.0196    1.7637    0.0000 H       1  UNL1        0.0353
     26 H           4.2214    1.7544    0.0000 H       1  UNL1        0.0353
     27 H           6.0678    1.0829    0.0000 H       1  UNL1        0.0575
     28 H           1.6900   -1.7131    0.0000 H       1  UNL1        0.0232
     29 H           1.4631   -2.5600    0.0000 H       1  UNL1        0.0232
     30 H           2.3100   -2.7869    0.0000 H       1  UNL1        0.0232
     31 H           3.4220   -2.7869    0.0000 H       1  UNL1        0.0232
     32 H           4.2690   -2.5600    0.0000 H       1  UNL1        0.0232
     33 H           4.0420   -1.7131    0.0000 H       1  UNL1        0.0232
     34 H           3.4860    2.2500    0.0000 H       1  UNL1        0.0274
     35 H           2.8660    2.8700    0.0000 H       1  UNL1        0.0274
     36 H           2.2460    2.2500    0.0000 H       1  UNL1        0.0274
     37 H           6.0841   -1.3099    0.0000 H       1  UNL1        0.0274
     38 H           6.9319   -1.0862    0.0000 H       1  UNL1        0.0274
     39 H           6.7082   -0.2384    0.0000 H       1  UNL1        0.0274
@<TRIPOS>BOND
     1     1     2    1
     2     1     3    1
     3     1     5    1
     4     1    16    1
     5     2     4    1
     6     2     6    1
     7     2    17    1
     8     3     7    1
     9     3    18    1
    10     3    19    1
    11     4     8    2
    12     4     9    1
    13     5    12    1
    14     5    13    1
    15     5    20    1
    16     6    10    1
    17     6    21    1
    18     6    22    1
    19     7     8    1
    20     7    23    1
    21     7    24    1
    22     8    14    1
    23     9    11    1
    24     9    25    1
    25     9    26    1
    26    10    11    2
    27    10    15    1
    28    11    27    1
    29    12    28    1
    30    12    29    1
    31    12    30    1
    32    13    31    1
    33    13    32    1
    34    13    33    1
    35    14    34    1
    36    14    35    1
    37    14    36    1
    38    15    37    1
    39    15    38    1
    40    15    39    1
