@<TRIPOS>MOLECULE
IMPHY010629
 23 25 0 0 0
SMALL
GASTEIGER

@<TRIPOS>ATOM
      1 N           6.6538   -4.6487    0.0000 N.3     1  UNL1       -0.2709
      2 C           5.8856   -5.7260    0.0000 C.3     1  UNL1        0.0769
      3 C           4.6187   -5.3270    0.0000 C.3     1  UNL1        0.0438
      4 C           3.4616   -5.9854    0.0000 C.ar    1  UNL1       -0.0176
      5 C           2.3044   -5.3270    0.0000 C.ar    1  UNL1       -0.0007
      6 C           2.3044   -3.9903    0.0000 C.ar    1  UNL1       -0.0011
      7 C           3.4616   -3.3219    0.0000 C.ar    1  UNL1       -0.0206
      8 C           4.6187   -3.9903    0.0000 C.3     1  UNL1        0.0437
      9 C           5.8856   -3.5912    0.0000 C.3     1  UNL1        0.0768
     10 C           3.4616   -7.3122    0.0000 C.ar    1  UNL1        0.0360
     11 C           2.3044   -7.9905    0.0000 C.ar    1  UNL1        0.1771
     12 C           1.1572   -7.3122    0.0000 C.ar    1  UNL1        0.2293
     13 C           1.1572   -5.9854    0.0000 C.ar    1  UNL1        0.0449
     14 C           1.1572   -3.3219    0.0000 C.ar    1  UNL1        0.0366
     15 C           1.1572   -1.9852    0.0000 C.ar    1  UNL1        0.1387
     16 C           2.3044   -1.3268    0.0000 C.ar    1  UNL1        0.0366
     17 C           3.4616   -1.9852    0.0000 C.ar    1  UNL1       -0.0011
     18 C           7.9905   -4.6487    0.0000 C.3     1  UNL1        0.0897
     19 O           2.3044   -9.3173    0.0000 O.3     1  UNL1       -0.4682
     20 C           1.1572   -9.9756    0.0000 C.3     1  UNL1        0.2526
     21 O           0.0000   -7.9905    0.0000 O.3     1  UNL1       -0.2833
     22 O           0.0000   -1.3268    0.0000 O.3     1  UNL1       -0.4714
     23 C           0.0000    0.0000    0.0000 C.3     1  UNL1        0.2525
@<TRIPOS>BOND
     1     1     9    1
     2     1     2    1
     3     1    18    1
     4     2     3    1
     5     3     4    1
     6     4     5   ar
     7     4    10   ar
     8     5     6    1
     9     5    13   ar
    10     6     7   ar
    11     6    14   ar
    12     7    17   ar
    13     7     8    1
    14     8     9    1
    15    10    11   ar
    16    11    12   ar
    17    11    19    1
    18    12    13   ar
    19    12    21    1
    20    14    15   ar
    21    15    16   ar
    22    15    22    1
    23    16    17   ar
    24    19    20    1
    25    22    23    1
