@<TRIPOS>MOLECULE
IMPHY001282
 30 33 0 0 0
SMALL
GASTEIGER

@<TRIPOS>ATOM
      1 O           3.5450    2.9085    0.0000 O.3     1  UNL1       -0.4950
      2 O           2.0000   -0.5185    0.0000 O.2     1  UNL1       -0.2673
      3 O           5.4292   -3.7764    0.0000 O.co2   1  UNL1       -0.6193
      4 N           3.7602   -0.7067    0.0000 N.ar    1  UNL1       -0.2702
      5 N           5.3799   -2.7776    0.0000 N.ar    1  UNL1       -0.1691
      6 C           4.5692   -1.2945    0.0000 C.ar    1  UNL1        0.1305
      7 C           5.3782   -0.7067    0.0000 C.ar    1  UNL1        0.0201
      8 C           4.0692    0.2444    0.0000 C.ar    1  UNL1        0.0615
      9 C           5.0692    0.2444    0.0000 C.ar    1  UNL1        0.0087
     10 C           4.4763   -2.3320    0.0000 C.ar    1  UNL1        0.2439
     11 C           2.8022   -1.1156    0.0000 C.ar    1  UNL1        0.2566
     12 C           6.2345   -1.2377    0.0000 C.ar    1  UNL1        0.0132
     13 C           3.5345    1.1383    0.0000 C.ar    1  UNL1        0.0046
     14 C           5.6038    1.1383    0.0000 C.ar    1  UNL1       -0.0485
     15 C           3.5280   -2.7630    0.0000 C.ar    1  UNL1        0.0183
     16 C           2.6853   -2.1507    0.0000 C.ar    1  UNL1        0.0096
     17 C           6.2353   -2.2452    0.0000 C.ar    1  UNL1        0.1841
     18 C           4.0484    2.0444    0.0000 C.ar    1  UNL1        0.1221
     19 C           5.0900    2.0444    0.0000 C.ar    1  UNL1       -0.0192
     20 C           4.0417    3.7764    0.0000 C.3     1  UNL1        0.0788
     21 H           6.7761   -0.9359    0.0000 H       1  UNL1        0.0684
     22 H           2.9146    1.1311    0.0000 H       1  UNL1        0.0675
     23 H           6.2238    1.1311    0.0000 H       1  UNL1        0.0625
     24 H           3.4656   -3.3798    0.0000 H       1  UNL1        0.0686
     25 H           2.1179   -2.4007    0.0000 H       1  UNL1        0.0674
     26 H           6.7774   -2.5461    0.0000 H       1  UNL1        0.1390
     27 H           5.4021    2.5801    0.0000 H       1  UNL1        0.0654
     28 H           4.5798    3.4685    0.0000 H       1  UNL1        0.0660
     29 H           4.3496    4.3145    0.0000 H       1  UNL1        0.0660
     30 H           3.5036    4.0843    0.0000 H       1  UNL1        0.0660
@<TRIPOS>UNITY_ATOM_ATTR
3 1
charge -1
5 1
charge 1
@<TRIPOS>BOND
     1     1    18    1
     2     1    20    1
     3     2    11    2
     4     3     5    1
     5     4     6   ar
     6     4     8   ar
     7     4    11   ar
     8     5    10   ar
     9     5    17   ar
    10     6     7   ar
    11     6    10   ar
    12     7     9   ar
    13     7    12   ar
    14     8     9   ar
    15     8    13   ar
    16     9    14   ar
    17    10    15   ar
    18    11    16   ar
    19    12    17   ar
    20    12    21    1
    21    13    18   ar
    22    13    22    1
    23    14    19   ar
    24    14    23    1
    25    15    16   ar
    26    15    24    1
    27    16    25    1
    28    17    26    1
    29    18    19   ar
    30    19    27    1
    31    20    28    1
    32    20    29    1
    33    20    30    1
