@<TRIPOS>MOLECULE
IMPHY014035
 84 89 0 0 0
SMALL
GASTEIGER

@<TRIPOS>ATOM
      1 O           6.6985   -3.9348    0.0000 O.3     1  UNL1       -0.4577
      2 O           6.6985    2.9913    0.0000 O.3     1  UNL1       -0.4577
      3 O           7.7104   -0.4718    0.0000 O.2     1  UNL1       -0.2524
      4 O           7.2909   -5.5624    0.0000 O.2     1  UNL1       -0.2449
      5 O           7.2909    4.6189    0.0000 O.2     1  UNL1       -0.2449
      6 O           3.1133   -4.3181    0.0000 O.3     1  UNL1       -0.4914
      7 O           4.2981    6.6297    0.0000 O.3     1  UNL1       -0.4914
      8 O           2.7660   -6.2877    0.0000 O.3     1  UNL1       -0.4915
      9 O           2.7660    5.3442    0.0000 O.3     1  UNL1       -0.4915
     10 N           9.2104   -1.3378    0.0000 N.am    1  UNL1       -0.2791
     11 N           9.2104    0.3942    0.0000 N.am    1  UNL1       -0.2791
     12 C           9.9470   -2.3204    0.0000 C.3     1  UNL1        0.0312
     13 C           9.6882   -3.2863    0.0000 C.3     1  UNL1        0.0312
     14 C           9.9470    1.3769    0.0000 C.3     1  UNL1        0.0312
     15 C           9.6882    2.3428    0.0000 C.3     1  UNL1        0.0312
     16 C          11.3460   -2.8292    0.0000 C.3     1  UNL1       -0.0324
     17 C          11.0872   -3.7952    0.0000 C.3     1  UNL1       -0.0324
     18 C          11.3460    1.8857    0.0000 C.3     1  UNL1       -0.0324
     19 C          11.0872    2.8516    0.0000 C.3     1  UNL1       -0.0324
     20 C           7.9138   -2.6316    0.0000 C.3     1  UNL1        0.0031
     21 C           8.4672   -4.1520    0.0000 C.3     1  UNL1        0.0031
     22 C           7.9138    1.6880    0.0000 C.3     1  UNL1        0.0031
     23 C           8.4672    3.2084    0.0000 C.3     1  UNL1        0.0031
     24 C           8.7104   -0.4718    0.0000 C.2     1  UNL1        0.3058
     25 C           7.6382   -3.5928    0.0000 C.3     1  UNL1        0.1068
     26 C           7.6382    2.6493    0.0000 C.3     1  UNL1        0.1068
     27 C           6.5248   -4.9196    0.0000 C.2     1  UNL1        0.3396
     28 C           6.5248    3.9761    0.0000 C.2     1  UNL1        0.3396
     29 C           5.5851   -5.2617    0.0000 C.ar    1  UNL1        0.0627
     30 C           5.5851    4.3181    0.0000 C.ar    1  UNL1        0.0627
     31 C           4.8191   -4.6189    0.0000 C.ar    1  UNL1       -0.0023
     32 C           5.4115    5.3029    0.0000 C.ar    1  UNL1       -0.0023
     33 C           5.4115   -6.2465    0.0000 C.ar    1  UNL1       -0.0441
     34 C           4.8191    3.6753    0.0000 C.ar    1  UNL1       -0.0441
     35 C           3.8794   -4.9609    0.0000 C.ar    1  UNL1        0.1623
     36 C           4.4718    5.6449    0.0000 C.ar    1  UNL1        0.1623
     37 C           4.4718   -6.5885    0.0000 C.ar    1  UNL1       -0.0155
     38 C           3.8794    4.0173    0.0000 C.ar    1  UNL1       -0.0155
     39 C           3.7057   -5.9457    0.0000 C.ar    1  UNL1        0.1615
     40 C           3.7057    5.0021    0.0000 C.ar    1  UNL1        0.1615
     41 C           2.1736   -4.6601    0.0000 C.3     1  UNL1        0.0790
     42 C           5.0642    7.2725    0.0000 C.3     1  UNL1        0.0790
     43 C           2.5924   -7.2725    0.0000 C.3     1  UNL1        0.0790
     44 C           2.0000    4.7014    0.0000 C.3     1  UNL1        0.0790
     45 H          10.3164   -1.8224    0.0000 H       1  UNL1        0.0502
     46 H           9.7710   -3.9008    0.0000 H       1  UNL1        0.0502
     47 H          10.3164    0.8789    0.0000 H       1  UNL1        0.0502
     48 H           9.7710    2.9572    0.0000 H       1  UNL1        0.0502
     49 H          11.9399   -3.0070    0.0000 H       1  UNL1        0.0284
     50 H          11.5409   -2.2407    0.0000 H       1  UNL1        0.0284
     51 H          10.8922   -4.3837    0.0000 H       1  UNL1        0.0284
     52 H          11.6811   -3.9729    0.0000 H       1  UNL1        0.0284
     53 H          11.5409    1.2971    0.0000 H       1  UNL1        0.0284
     54 H          11.9399    2.0634    0.0000 H       1  UNL1        0.0284
     55 H          11.6811    3.0294    0.0000 H       1  UNL1        0.0284
     56 H          10.8922    3.4402    0.0000 H       1  UNL1        0.0284
     57 H           7.9087   -2.0116    0.0000 H       1  UNL1        0.0319
     58 H           7.2995   -2.5478    0.0000 H       1  UNL1        0.0319
     59 H           8.0613   -4.6207    0.0000 H       1  UNL1        0.0319
     60 H           8.8838   -4.6111    0.0000 H       1  UNL1        0.0319
     61 H           7.2995    1.6042    0.0000 H       1  UNL1        0.0319
     62 H           7.9087    1.0680    0.0000 H       1  UNL1        0.0319
     63 H           8.8838    3.6676    0.0000 H       1  UNL1        0.0319
     64 H           8.0613    3.6772    0.0000 H       1  UNL1        0.0319
     65 H           7.5626   -4.2082    0.0000 H       1  UNL1        0.0735
     66 H           7.5626    3.2646    0.0000 H       1  UNL1        0.0735
     67 H           4.9267   -4.0083    0.0000 H       1  UNL1        0.0663
     68 H           5.8864    5.7014    0.0000 H       1  UNL1        0.0663
     69 H           5.8864   -6.6450    0.0000 H       1  UNL1        0.0627
     70 H           4.9267    3.0647    0.0000 H       1  UNL1        0.0627
     71 H           4.3641   -7.1991    0.0000 H       1  UNL1        0.0655
     72 H           3.4044    3.6188    0.0000 H       1  UNL1        0.0655
     73 H           1.9616   -4.0775    0.0000 H       1  UNL1        0.0660
     74 H           1.5910   -4.8722    0.0000 H       1  UNL1        0.0660
     75 H           2.3857   -5.2427    0.0000 H       1  UNL1        0.0660
     76 H           5.4627    6.7976    0.0000 H       1  UNL1        0.0660
     77 H           5.5391    7.6711    0.0000 H       1  UNL1        0.0660
     78 H           4.6656    7.7475    0.0000 H       1  UNL1        0.0660
     79 H           1.9818   -7.1649    0.0000 H       1  UNL1        0.0660
     80 H           2.4847   -7.8831    0.0000 H       1  UNL1        0.0660
     81 H           3.2030   -7.3802    0.0000 H       1  UNL1        0.0660
     82 H           1.6015    5.1763    0.0000 H       1  UNL1        0.0660
     83 H           1.5250    4.3028    0.0000 H       1  UNL1        0.0660
     84 H           2.3985    4.2264    0.0000 H       1  UNL1        0.0660
@<TRIPOS>BOND
     1     1    25    1
     2     1    27    1
     3     2    26    1
     4     2    28    1
     5     3    24    2
     6     4    27    2
     7     5    28    2
     8     6    35    1
     9     6    41    1
    10     7    36    1
    11     7    42    1
    12     8    39    1
    13     8    43    1
    14     9    40    1
    15     9    44    1
    16    10    12    1
    17    10    13    1
    18    10    24   am
    19    11    14    1
    20    11    15    1
    21    11    24   am
    22    12    16    1
    23    12    20    1
    24    12    45    1
    25    13    17    1
    26    13    21    1
    27    13    46    1
    28    14    18    1
    29    14    22    1
    30    14    47    1
    31    15    19    1
    32    15    23    1
    33    15    48    1
    34    16    17    1
    35    16    49    1
    36    16    50    1
    37    17    51    1
    38    17    52    1
    39    18    19    1
    40    18    53    1
    41    18    54    1
    42    19    55    1
    43    19    56    1
    44    20    25    1
    45    20    57    1
    46    20    58    1
    47    21    25    1
    48    21    59    1
    49    21    60    1
    50    22    26    1
    51    22    61    1
    52    22    62    1
    53    23    26    1
    54    23    63    1
    55    23    64    1
    56    25    65    1
    57    26    66    1
    58    27    29    1
    59    28    30    1
    60    29    31   ar
    61    29    33   ar
    62    30    32   ar
    63    30    34   ar
    64    31    35   ar
    65    31    67    1
    66    32    36   ar
    67    32    68    1
    68    33    37   ar
    69    33    69    1
    70    34    38   ar
    71    34    70    1
    72    35    39   ar
    73    36    40   ar
    74    37    39   ar
    75    37    71    1
    76    38    40   ar
    77    38    72    1
    78    41    73    1
    79    41    74    1
    80    41    75    1
    81    42    76    1
    82    42    77    1
    83    42    78    1
    84    43    79    1
    85    43    80    1
    86    43    81    1
    87    44    82    1
    88    44    83    1
    89    44    84    1
