@<TRIPOS>MOLECULE
IMPHY004956
 56 59 0 0 0
SMALL
GASTEIGER

@<TRIPOS>ATOM
      1 O           6.3301   -2.7819    0.0000 O.3     1  UNL1       -0.3302
      2 O           8.0622   -2.7819    0.0000 O.3     1  UNL1       -0.4606
      3 O           4.5981   -4.7819    0.0000 O.3     1  UNL1       -0.3864
      4 O           6.3301   -5.7819    0.0000 O.3     1  UNL1       -0.3864
      5 O           8.0622   -4.7819    0.0000 O.3     1  UNL1       -0.3829
      6 O           3.7320   -3.2819    0.0000 O.3     1  UNL1       -0.4621
      7 O           9.8181    0.2806    0.0000 O.2     1  UNL1       -0.4618
      8 O           6.3159    0.2973    0.0000 O.3     1  UNL1       -0.5058
      9 O           2.8660   -1.7819    0.0000 O.2     1  UNL1       -0.2512
     10 O           7.2259    1.7906    0.0000 O.2     1  UNL1       -0.2863
     11 O           8.9733    5.7839    0.0000 O.3     1  UNL1       -0.5068
     12 C           5.4641   -4.2819    0.0000 C.3     1  UNL1        0.1130
     13 C           6.3301   -4.7819    0.0000 C.3     1  UNL1        0.1152
     14 C           5.4641   -3.2819    0.0000 C.3     1  UNL1        0.1250
     15 C           7.1962   -4.2819    0.0000 C.3     1  UNL1        0.1454
     16 C           7.1962   -3.2819    0.0000 C.3     1  UNL1        0.2308
     17 C           4.5981   -2.7819    0.0000 C.3     1  UNL1        0.1212
     18 C           8.0622   -1.7819    0.0000 C.ar    1  UNL1        0.1310
     19 C           8.9622   -1.2576    0.0000 C.ar    1  UNL1        0.0234
     20 C           7.1621   -1.2576    0.0000 C.ar    1  UNL1        0.0226
     21 C           8.9502   -0.2160    0.0000 C.ar    1  UNL1        0.1454
     22 C           8.0861    0.2873    0.0000 C.ar    1  UNL1        0.1060
     23 C           7.1742   -0.2160    0.0000 C.ar    1  UNL1        0.1347
     24 C           2.8660   -2.7819    0.0000 C.2     1  UNL1        0.3040
     25 C           8.0900    1.2873    0.0000 C.ar    1  UNL1        0.2037
     26 C           8.9579    1.7840    0.0000 C.ar    1  UNL1        0.0644
     27 C           2.0000   -3.2819    0.0000 C.3     1  UNL1        0.0332
     28 C           9.8220    1.2806    0.0000 C.ar    1  UNL1        0.1038
     29 C           8.9618    2.7840    0.0000 C.ar    1  UNL1       -0.0110
     30 C           9.8297    3.2806    0.0000 C.ar    1  UNL1       -0.0504
     31 C           8.0977    3.2873    0.0000 C.ar    1  UNL1       -0.0504
     32 C           9.8336    4.2806    0.0000 C.ar    1  UNL1       -0.0196
     33 C           8.1015    4.2873    0.0000 C.ar    1  UNL1       -0.0196
     34 C           8.9695    4.7840    0.0000 C.ar    1  UNL1        0.1169
     35 H           5.4641   -4.9019    0.0000 H       1  UNL1        0.0647
     36 H           6.8671   -5.0919    0.0000 H       1  UNL1        0.0648
     37 H           5.4641   -2.6619    0.0000 H       1  UNL1        0.0658
     38 H           7.7331   -3.9719    0.0000 H       1  UNL1        0.0683
     39 H           7.1962   -2.6619    0.0000 H       1  UNL1        0.1084
     40 H           4.9966   -2.3069    0.0000 H       1  UNL1        0.0724
     41 H           4.1996   -2.3069    0.0000 H       1  UNL1        0.0724
     42 H           4.5981   -5.4019    0.0000 H       1  UNL1        0.2100
     43 H           5.7932   -6.0919    0.0000 H       1  UNL1        0.2100
     44 H           8.0622   -5.4019    0.0000 H       1  UNL1        0.2102
     45 H           9.5016   -1.5634    0.0000 H       1  UNL1        0.0691
     46 H           6.6228   -1.5634    0.0000 H       1  UNL1        0.0691
     47 H           1.6900   -2.7449    0.0000 H       1  UNL1        0.0342
     48 H           1.4631   -3.5919    0.0000 H       1  UNL1        0.0342
     49 H           2.3100   -3.8188    0.0000 H       1  UNL1        0.0342
     50 H          10.3601    1.5886    0.0000 H       1  UNL1        0.1037
     51 H           5.7743   -0.0044    0.0000 H       1  UNL1        0.2922
     52 H          10.3654    2.9686    0.0000 H       1  UNL1        0.0625
     53 H           7.5595    2.9794    0.0000 H       1  UNL1        0.0625
     54 H          10.3717    4.5885    0.0000 H       1  UNL1        0.0654
     55 H           7.5658    4.5994    0.0000 H       1  UNL1        0.0654
     56 H           9.5114    6.0919    0.0000 H       1  UNL1        0.2921
@<TRIPOS>BOND
     1     1    14    1
     2     1    16    1
     3    16     2    1
     4     2    18    1
     5    12     3    1
     6     3    42    1
     7    13     4    1
     8     4    43    1
     9    15     5    1
    10     5    44    1
    11     6    17    1
    12     6    24    1
    13     7    21   ar
    14     7    28   ar
    15     8    23    1
    16     8    51    1
    17     9    24    2
    18    10    25    2
    19    11    34    1
    20    11    56    1
    21    12    13    1
    22    12    14    1
    23    12    35    1
    24    13    15    1
    25    13    36    1
    26    14    17    1
    27    14    37    1
    28    15    16    1
    29    15    38    1
    30    16    39    1
    31    17    40    1
    32    17    41    1
    33    18    19   ar
    34    18    20   ar
    35    19    21   ar
    36    19    45    1
    37    20    23   ar
    38    20    46    1
    39    21    22   ar
    40    22    23   ar
    41    22    25   ar
    42    24    27    1
    43    25    26   ar
    44    26    28   ar
    45    26    29    1
    46    27    47    1
    47    27    48    1
    48    27    49    1
    49    28    50    1
    50    29    30   ar
    51    29    31   ar
    52    30    32   ar
    53    30    52    1
    54    31    33   ar
    55    31    53    1
    56    32    34   ar
    57    32    54    1
    58    33    34   ar
    59    33    55    1
