@<TRIPOS>MOLECULE
IMPHY017688
 23 23 0 0 0
SMALL
GASTEIGER

@<TRIPOS>ATOM
      1 O           2.8660   -2.6550    0.0000 O.3     1  UNL1       -0.4951
      2 O           3.7320    2.8450    0.0000 O.3     1  UNL1       -0.3947
      3 C           2.8660    0.3450    0.0000 C.ar    1  UNL1       -0.0450
      4 C           2.8660    1.3450    0.0000 C.3     1  UNL1       -0.0044
      5 C           2.0000   -0.1550    0.0000 C.ar    1  UNL1       -0.0550
      6 C           3.7320   -0.1550    0.0000 C.ar    1  UNL1       -0.0550
      7 C           3.7320    1.8450    0.0000 C.3     1  UNL1        0.0482
      8 C           2.8660   -1.6550    0.0000 C.ar    1  UNL1        0.1201
      9 C           2.0000   -1.1550    0.0000 C.ar    1  UNL1       -0.0197
     10 C           3.7320   -1.1550    0.0000 C.ar    1  UNL1       -0.0197
     11 C           2.0000   -3.1550    0.0000 C.3     1  UNL1        0.0788
     12 H           2.6540    1.9276    0.0000 H       1  UNL1        0.0335
     13 H           2.2554    1.2373    0.0000 H       1  UNL1        0.0335
     14 H           1.4631    0.1550    0.0000 H       1  UNL1        0.0621
     15 H           4.2690    0.1550    0.0000 H       1  UNL1        0.0621
     16 H           3.9441    1.2624    0.0000 H       1  UNL1        0.0560
     17 H           4.3426    1.9527    0.0000 H       1  UNL1        0.0560
     18 H           1.4631   -1.4650    0.0000 H       1  UNL1        0.0654
     19 H           4.2690   -1.4650    0.0000 H       1  UNL1        0.0654
     20 H           4.2690    3.1550    0.0000 H       1  UNL1        0.2094
     21 H           1.6900   -2.6181    0.0000 H       1  UNL1        0.0660
     22 H           1.4631   -3.4650    0.0000 H       1  UNL1        0.0660
     23 H           2.3100   -3.6919    0.0000 H       1  UNL1        0.0660
@<TRIPOS>BOND
     1     1     8    1
     2     1    11    1
     3     2     7    1
     4     2    20    1
     5     3     4    1
     6     3     5   ar
     7     3     6   ar
     8     4     7    1
     9     4    12    1
    10     4    13    1
    11     5     9   ar
    12     5    14    1
    13     6    10   ar
    14     6    15    1
    15     7    16    1
    16     7    17    1
    17     8     9   ar
    18     8    10   ar
    19     9    18    1
    20    10    19    1
    21    11    21    1
    22    11    22    1
    23    11    23    1
