@<TRIPOS>MOLECULE
IMPHY013992
 40 43 0 0 0
SMALL
GASTEIGER

@<TRIPOS>ATOM
      1 O           3.6228   -2.4064    0.0000 O.3     1  UNL1       -0.3728
      2 C           3.6218    0.6463    0.0000 C.3     1  UNL1       -0.0228
      3 C           4.4308    0.0586    0.0000 C.3     1  UNL1       -0.0273
      4 C           4.1212   -0.8861    0.0000 C.3     1  UNL1        0.0001
      5 C           3.1271   -0.8852    0.0000 C.3     1  UNL1       -0.0039
      6 C           2.8191    0.0599    0.0000 C.3     1  UNL1       -0.0408
      7 C           2.8234   -1.8256    0.0000 C.3     1  UNL1        0.0702
      8 C           3.9308    1.5974    0.0000 C.3     1  UNL1       -0.0379
      9 C           3.9591   -0.2998    0.0000 C.3     1  UNL1       -0.0442
     10 C           5.2398    0.6463    0.0000 C.3     1  UNL1       -0.0489
     11 C           3.6504   -1.2556    0.0000 C.3     1  UNL1       -0.0232
     12 C           4.4233   -1.8270    0.0000 C.3     1  UNL1        0.0544
     13 C           4.9308    1.5974    0.0000 C.3     1  UNL1       -0.0497
     14 C           5.1212   -0.8869    0.0000 C.3     1  UNL1       -0.0568
     15 C           2.0000   -2.3931    0.0000 C.3     1  UNL1       -0.0355
     16 C           3.3430    2.4064    0.0000 C.3     1  UNL1       -0.0619
     17 H           4.9319   -0.3065    0.0000 H       1  UNL1        0.0312
     18 H           2.5071   -0.8860    0.0000 H       1  UNL1        0.0335
     19 H           2.5080    0.5963    0.0000 H       1  UNL1        0.0275
     20 H           2.2531   -0.1930    0.0000 H       1  UNL1        0.0275
     21 H           4.2123    2.1498    0.0000 H       1  UNL1        0.0304
     22 H           4.4646   -0.6589    0.0000 H       1  UNL1        0.0272
     23 H           4.4535    0.0744    0.0000 H       1  UNL1        0.0272
     24 H           5.5498    0.1094    0.0000 H       1  UNL1        0.0268
     25 H           5.8062    0.8985    0.0000 H       1  UNL1        0.0268
     26 H           3.8325   -1.8482    0.0000 H       1  UNL1        0.0293
     27 H           4.2704   -1.2600    0.0000 H       1  UNL1        0.0293
     28 H           4.7321   -2.3646    0.0000 H       1  UNL1        0.0566
     29 H           4.9904   -1.5764    0.0000 H       1  UNL1        0.0566
     30 H           5.5373    1.7263    0.0000 H       1  UNL1        0.0268
     31 H           4.8660    2.2140    0.0000 H       1  UNL1        0.0268
     32 H           5.1207   -1.5069    0.0000 H       1  UNL1        0.0236
     33 H           5.7412   -0.8875    0.0000 H       1  UNL1        0.0236
     34 H           5.1217   -0.2669    0.0000 H       1  UNL1        0.0236
     35 H           1.6482   -1.8826    0.0000 H       1  UNL1        0.0257
     36 H           1.4895   -2.7449    0.0000 H       1  UNL1        0.0257
     37 H           2.3519   -2.9036    0.0000 H       1  UNL1        0.0257
     38 H           3.8446    2.7708    0.0000 H       1  UNL1        0.0233
     39 H           2.9786    2.9080    0.0000 H       1  UNL1        0.0233
     40 H           2.8415    2.0420    0.0000 H       1  UNL1        0.0233
@<TRIPOS>BOND
     1     1     7    1
     2     1    12    1
     3     2     3    1
     4     2     6    1
     5     2     8    1
     6     2     9    1
     7     3     4    1
     8     3    10    1
     9     3    17    1
    10     4     5    1
    11     4    12    1
    12     4    14    1
    13     5     6    1
    14     5     7    1
    15     5    18    1
    16     6    19    1
    17     6    20    1
    18     7    11    1
    19     7    15    1
    20     8    13    1
    21     8    16    1
    22     8    21    1
    23     9    11    1
    24     9    22    1
    25     9    23    1
    26    10    13    1
    27    10    24    1
    28    10    25    1
    29    11    26    1
    30    11    27    1
    31    12    28    1
    32    12    29    1
    33    13    30    1
    34    13    31    1
    35    14    32    1
    36    14    33    1
    37    14    34    1
    38    15    35    1
    39    15    36    1
    40    15    37    1
    41    16    38    1
    42    16    39    1
    43    16    40    1
