@<TRIPOS>MOLECULE
IMPHY010036
 24 26 0 0 0
SMALL
GASTEIGER

@<TRIPOS>ATOM
      1 O           2.5836    0.2701    0.0000 O.3     1  UNL1       -0.4487
      2 O           2.5836   -1.3394    0.0000 O.3     1  UNL1       -0.4488
      3 O           4.3798    1.5069    0.0000 O.2     1  UNL1       -0.4183
      4 O           4.3958   -2.5346    0.0000 O.3     1  UNL1       -0.4913
      5 O           5.2740    3.0346    0.0000 O.2     1  UNL1       -0.2452
      6 C           3.5298   -0.0346    0.0000 C.ar    1  UNL1        0.2125
      7 C           3.5298   -1.0346    0.0000 C.ar    1  UNL1        0.2112
      8 C           4.3958    0.4654    0.0000 C.ar    1  UNL1        0.1845
      9 C           5.2619   -0.0346    0.0000 C.ar    1  UNL1        0.0250
     10 C           4.3958   -1.5346    0.0000 C.ar    1  UNL1        0.1661
     11 C           5.2619   -1.0346    0.0000 C.ar    1  UNL1       -0.0054
     12 C           2.0000   -0.5346    0.0000 C.3     1  UNL1        0.2336
     13 C           6.1719    0.4722    0.0000 C.ar    1  UNL1       -0.0441
     14 C           6.1799    1.5138    0.0000 C.ar    1  UNL1        0.0236
     15 C           5.2778    2.0346    0.0000 C.ar    1  UNL1        0.3373
     16 C           5.2619   -3.0346    0.0000 C.3     1  UNL1        0.0790
     17 H           5.7988   -1.3446    0.0000 H       1  UNL1        0.0662
     18 H           1.5391   -0.1199    0.0000 H       1  UNL1        0.1166
     19 H           1.5391   -0.9494    0.0000 H       1  UNL1        0.1166
     20 H           6.7052    0.1560    0.0000 H       1  UNL1        0.0627
     21 H           6.7180    1.8218    0.0000 H       1  UNL1        0.0689
     22 H           4.9519   -3.5716    0.0000 H       1  UNL1        0.0660
     23 H           5.7988   -3.3446    0.0000 H       1  UNL1        0.0660
     24 H           5.5719   -2.4977    0.0000 H       1  UNL1        0.0660
@<TRIPOS>BOND
     1     1     6    1
     2     1    12    1
     3     2     7    1
     4     2    12    1
     5     3     8   ar
     6     3    15   ar
     7     4    10    1
     8     4    16    1
     9     5    15    2
    10     6     7   ar
    11     6     8   ar
    12     7    10   ar
    13     8     9   ar
    14     9    11   ar
    15     9    13   ar
    16    10    11   ar
    17    11    17    1
    18    12    18    1
    19    12    19    1
    20    13    14   ar
    21    13    20    1
    22    14    15   ar
    23    14    21    1
    24    16    22    1
    25    16    23    1
    26    16    24    1
