@<TRIPOS>MOLECULE
IMPHY009741
 83 85 0 0 0
SMALL
GASTEIGER

@<TRIPOS>ATOM
      1 O           6.6173   -1.2190    0.0000 O.3     1  UNL1       -0.4864
      2 O           8.0125    2.7325    0.0000 O.2     1  UNL1       -0.2735
      3 O           8.2910    0.7474    0.0000 O.2     1  UNL1       -0.2736
      4 O          11.6676    1.6968    0.0000 O.2     1  UNL1       -0.2734
      5 O           4.4871    3.4884    0.0000 O.2     1  UNL1       -0.2741
      6 O           9.9939   -3.1684    0.0000 O.3     1  UNL1       -0.4945
      7 N           7.2532    1.1757    0.0000 N.am    1  UNL1       -0.2849
      8 N           9.1279    0.2305    0.0000 N.am    1  UNL1       -0.3023
      9 N           5.4557    2.0525    0.0000 N.am    1  UNL1       -0.3025
     10 N          10.8016    0.2305    0.0000 N.am    1  UNL1       -0.2904
     11 N           2.8290    2.3700    0.0000 N.3     1  UNL1       -0.3089
     12 C           7.4542    0.2305    0.0000 C.3     1  UNL1        0.1390
     13 C           6.6173   -0.2526    0.0000 C.3     1  UNL1        0.1285
     14 C           5.8992    0.3940    0.0000 C.3     1  UNL1        0.0024
     15 C           6.2922    1.2767    0.0000 C.3     1  UNL1        0.0191
     16 C           7.1835    2.1733    0.0000 C.2     1  UNL1        0.2369
     17 C           8.2910   -0.2526    0.0000 C.2     1  UNL1        0.2378
     18 C           6.2847    2.6117    0.0000 C.3     1  UNL1        0.1019
     19 C           6.2149    3.6092    0.0000 C.3     1  UNL1       -0.0197
     20 C           9.1279    1.1968    0.0000 C.3     1  UNL1        0.0999
     21 C           8.6279    2.0629    0.0000 C.3     1  UNL1       -0.0236
     22 C           7.4542   -1.7021    0.0000 C.ar    1  UNL1        0.1218
     23 C           5.3162    4.0476    0.0000 C.3     1  UNL1       -0.0605
     24 C           7.0440    4.1684    0.0000 C.3     1  UNL1       -0.0605
     25 C           9.1278    2.9289    0.0000 C.3     1  UNL1       -0.0446
     26 C          10.8016    1.1968    0.0000 C.2     1  UNL1        0.2371
     27 C           4.5569    2.4908    0.0000 C.2     1  UNL1        0.2304
     28 C           8.2910   -1.2190    0.0000 C.ar    1  UNL1       -0.0092
     29 C           7.4542   -2.6684    0.0000 C.ar    1  UNL1       -0.0164
     30 C           3.7278    1.9316    0.0000 C.3     1  UNL1        0.0817
     31 C          10.1279    2.9289    0.0000 C.3     1  UNL1       -0.0626
     32 C           8.6278    3.7949    0.0000 C.3     1  UNL1       -0.0626
     33 C           9.1279   -1.7021    0.0000 C.ar    1  UNL1        0.0213
     34 C           8.2910   -3.1516    0.0000 C.ar    1  UNL1       -0.0159
     35 C           9.1279   -2.6684    0.0000 C.ar    1  UNL1        0.1275
     36 C           9.9647   -1.2190    0.0000 C.2     1  UNL1       -0.0371
     37 C           3.7976    0.9341    0.0000 C.3     1  UNL1       -0.0412
     38 C           9.9647   -0.2526    0.0000 C.2     1  UNL1       -0.0030
     39 C           2.0000    1.8108    0.0000 C.3     1  UNL1       -0.0151
     40 C           9.9939   -4.1684    0.0000 C.3     1  UNL1        0.0788
     41 H           7.9557    0.5950    0.0000 H       1  UNL1        0.0634
     42 H           6.0509   -0.5048    0.0000 H       1  UNL1        0.0757
     43 H           5.3623    0.7040    0.0000 H       1  UNL1        0.0317
     44 H           5.5348   -0.1076    0.0000 H       1  UNL1        0.0317
     45 H           6.4211    1.8832    0.0000 H       1  UNL1        0.0466
     46 H           5.7026    1.4683    0.0000 H       1  UNL1        0.0466
     47 H           5.7274    2.8834    0.0000 H       1  UNL1        0.0597
     48 H           6.7722    3.3374    0.0000 H       1  UNL1        0.0318
     49 H           9.6642    0.5415    0.0000 H       1  UNL1        0.1495
     50 H           8.5290    1.0364    0.0000 H       1  UNL1        0.0595
     51 H           5.4989    1.4340    0.0000 H       1  UNL1        0.1495
     52 H           8.1529    2.4614    0.0000 H       1  UNL1        0.0290
     53 H           8.1529    1.6643    0.0000 H       1  UNL1        0.0290
     54 H           5.5879    4.6048    0.0000 H       1  UNL1        0.0233
     55 H           4.7589    4.3194    0.0000 H       1  UNL1        0.0233
     56 H           5.0444    3.4903    0.0000 H       1  UNL1        0.0233
     57 H           7.3907    3.6544    0.0000 H       1  UNL1        0.0233
     58 H           7.5580    4.5151    0.0000 H       1  UNL1        0.0233
     59 H           6.6973    4.6824    0.0000 H       1  UNL1        0.0233
     60 H           9.4378    3.4658    0.0000 H       1  UNL1        0.0296
     61 H           8.2910   -0.5989    0.0000 H       1  UNL1        0.0661
     62 H           6.9172   -2.9784    0.0000 H       1  UNL1        0.0655
     63 H           3.2138    1.5849    0.0000 H       1  UNL1        0.0553
     64 H          10.1279    2.3089    0.0000 H       1  UNL1        0.0232
     65 H          10.7479    2.9289    0.0000 H       1  UNL1        0.0232
     66 H          10.1279    3.5489    0.0000 H       1  UNL1        0.0232
     67 H           9.1648    4.1049    0.0000 H       1  UNL1        0.0232
     68 H           8.3178    4.3318    0.0000 H       1  UNL1        0.0232
     69 H           8.0909    3.4849    0.0000 H       1  UNL1        0.0232
     70 H          11.3385   -0.0795    0.0000 H       1  UNL1        0.1543
     71 H           8.2910   -3.7716    0.0000 H       1  UNL1        0.0655
     72 H          10.5016   -1.5290    0.0000 H       1  UNL1        0.0637
     73 H           3.1791    0.8908    0.0000 H       1  UNL1        0.0249
     74 H           3.8408    0.3156    0.0000 H       1  UNL1        0.0249
     75 H           4.4161    0.9773    0.0000 H       1  UNL1        0.0249
     76 H          10.5016   -0.5626    0.0000 H       1  UNL1        0.0782
     77 H           2.7858    2.9885    0.0000 H       1  UNL1        0.1223
     78 H           1.6533    2.3248    0.0000 H       1  UNL1        0.0388
     79 H           1.4860    1.4641    0.0000 H       1  UNL1        0.0388
     80 H           2.3467    1.2968    0.0000 H       1  UNL1        0.0388
     81 H           9.3739   -4.1684    0.0000 H       1  UNL1        0.0660
     82 H           9.9939   -4.7884    0.0000 H       1  UNL1        0.0660
     83 H          10.6139   -4.1684    0.0000 H       1  UNL1        0.0660
@<TRIPOS>BOND
     1     1    13    1
     2     1    22    1
     3     2    16    2
     4     3    17    2
     5     4    26    2
     6     5    27    2
     7     6    35    1
     8     6    40    1
     9     7    12    1
    10     7    15    1
    11     7    16   am
    12     8    17   am
    13     8    20    1
    14     8    49    1
    15     9    18    1
    16     9    27   am
    17     9    51    1
    18    10    26   am
    19    10    38    1
    20    10    70    1
    21    11    30    1
    22    11    39    1
    23    11    77    1
    24    12    13    1
    25    12    17    1
    26    12    41    1
    27    13    14    1
    28    13    42    1
    29    14    15    1
    30    14    43    1
    31    14    44    1
    32    15    45    1
    33    15    46    1
    34    16    18    1
    35    18    19    1
    36    18    47    1
    37    19    23    1
    38    19    24    1
    39    19    48    1
    40    20    21    1
    41    20    26    1
    42    20    50    1
    43    21    25    1
    44    21    52    1
    45    21    53    1
    46    22    28   ar
    47    22    29   ar
    48    23    54    1
    49    23    55    1
    50    23    56    1
    51    24    57    1
    52    24    58    1
    53    24    59    1
    54    25    31    1
    55    25    32    1
    56    25    60    1
    57    27    30    1
    58    28    33   ar
    59    28    61    1
    60    29    34   ar
    61    29    62    1
    62    30    37    1
    63    30    63    1
    64    31    64    1
    65    31    65    1
    66    31    66    1
    67    32    67    1
    68    32    68    1
    69    32    69    1
    70    33    35   ar
    71    33    36    1
    72    34    35   ar
    73    34    71    1
    74    36    38    2
    75    36    72    1
    76    37    73    1
    77    37    74    1
    78    37    75    1
    79    38    76    1
    80    39    78    1
    81    39    79    1
    82    39    80    1
    83    40    81    1
    84    40    82    1
    85    40    83    1
