@<TRIPOS>MOLECULE
IMPHY008888
 87 90 0 0 0
SMALL
GASTEIGER

@<TRIPOS>ATOM
      1 O           7.7331   -0.5000    0.0000 O.3     1  UNL1       -0.3401
      2 O           6.0010   -0.5000    0.0000 O.3     1  UNL1       -0.3405
      3 O           8.5991    2.0000    0.0000 O.3     1  UNL1       -0.3405
      4 O           4.2690   -2.5000    0.0000 O.3     1  UNL1       -0.3401
      5 O           7.7331    3.5000    0.0000 O.3     1  UNL1       -0.3401
      6 O           5.1350   -4.0000    0.0000 O.3     1  UNL1       -0.3405
      7 O           6.0010    0.5000    0.0000 O.3     1  UNL1       -0.3864
      8 O          10.3312    4.0000    0.0000 O.3     1  UNL1       -0.3407
      9 O           6.0010   -3.5000    0.0000 O.3     1  UNL1       -0.3864
     10 O           7.7331   -2.5000    0.0000 O.3     1  UNL1       -0.3841
     11 O           6.0010    2.5000    0.0000 O.3     1  UNL1       -0.3841
     12 O           7.7331    5.5000    0.0000 O.3     1  UNL1       -0.3864
     13 O           2.5369   -3.5000    0.0000 O.3     1  UNL1       -0.3841
     14 O           2.5369   -5.5000    0.0000 O.3     1  UNL1       -0.3864
     15 O           4.2690   -6.5000    0.0000 O.3     1  UNL1       -0.3865
     16 O           9.4651    6.5000    0.0000 O.3     1  UNL1       -0.3841
     17 O          10.3312    1.0000    0.0000 O.3     1  UNL1       -0.3924
     18 O           4.2690    0.5000    0.0000 O.3     1  UNL1       -0.3924
     19 O          11.1972    5.5000    0.0000 O.3     1  UNL1       -0.3649
     20 O          10.3312    2.0000    0.0000 O.3     1  UNL1       -0.3924
     21 O           6.8671   -5.0000    0.0000 O.3     1  UNL1       -0.3924
     22 C           7.7331    0.5000    0.0000 C.3     1  UNL1        0.1184
     23 C           5.1350   -2.0000    0.0000 C.3     1  UNL1        0.1184
     24 C           6.8671    1.0000    0.0000 C.3     1  UNL1        0.1144
     25 C           6.0010   -2.5000    0.0000 C.3     1  UNL1        0.1144
     26 C           6.8671   -1.0000    0.0000 C.3     1  UNL1        0.1884
     27 C           6.8671   -2.0000    0.0000 C.3     1  UNL1        0.1341
     28 C           8.5991    1.0000    0.0000 C.3     1  UNL1        0.1134
     29 C           6.8671    2.0000    0.0000 C.3     1  UNL1        0.1341
     30 C           5.1350   -1.0000    0.0000 C.3     1  UNL1        0.1134
     31 C           7.7331    2.5000    0.0000 C.3     1  UNL1        0.1884
     32 C           8.5991    4.0000    0.0000 C.3     1  UNL1        0.1184
     33 C           4.2690   -3.5000    0.0000 C.3     1  UNL1        0.1884
     34 C           8.5991    5.0000    0.0000 C.3     1  UNL1        0.1144
     35 C           9.4651    3.5000    0.0000 C.3     1  UNL1        0.1134
     36 C           3.4030   -4.0000    0.0000 C.3     1  UNL1        0.1341
     37 C           3.4030   -5.0000    0.0000 C.3     1  UNL1        0.1141
     38 C           4.2690   -5.5000    0.0000 C.3     1  UNL1        0.1119
     39 C           9.4651    0.5000    0.0000 C.3     1  UNL1        0.0730
     40 C           9.4651    5.5000    0.0000 C.3     1  UNL1        0.1339
     41 C           5.1350   -5.0000    0.0000 C.3     1  UNL1        0.1130
     42 C           4.2690   -0.5000    0.0000 C.3     1  UNL1        0.0730
     43 C          10.3312    5.0000    0.0000 C.3     1  UNL1        0.1854
     44 C           9.4651    2.5000    0.0000 C.3     1  UNL1        0.0730
     45 C           6.0010   -5.5000    0.0000 C.3     1  UNL1        0.0730
     46 H           7.1962    0.1900    0.0000 H       1  UNL1        0.0651
     47 H           5.1350   -2.6200    0.0000 H       1  UNL1        0.0651
     48 H           6.3301    1.3100    0.0000 H       1  UNL1        0.0648
     49 H           6.5380   -2.8100    0.0000 H       1  UNL1        0.0648
     50 H           7.4040   -1.3100    0.0000 H       1  UNL1        0.0938
     51 H           6.8671   -2.6200    0.0000 H       1  UNL1        0.0671
     52 H           9.1360    1.3100    0.0000 H       1  UNL1        0.0647
     53 H           6.8671    2.6200    0.0000 H       1  UNL1        0.0671
     54 H           5.1350   -0.3800    0.0000 H       1  UNL1        0.0647
     55 H           8.2700    2.8100    0.0000 H       1  UNL1        0.0938
     56 H           8.5991    3.3800    0.0000 H       1  UNL1        0.0651
     57 H           3.7320   -3.1900    0.0000 H       1  UNL1        0.0938
     58 H           8.5991    5.6200    0.0000 H       1  UNL1        0.0648
     59 H          10.0021    3.1900    0.0000 H       1  UNL1        0.0647
     60 H           3.9399   -4.3100    0.0000 H       1  UNL1        0.0671
     61 H           3.4030   -5.6200    0.0000 H       1  UNL1        0.0648
     62 H           4.8059   -5.8100    0.0000 H       1  UNL1        0.0647
     63 H           9.0666    0.0251    0.0000 H       1  UNL1        0.0584
     64 H           9.8637    0.0251    0.0000 H       1  UNL1        0.0584
     65 H          10.0021    5.8100    0.0000 H       1  UNL1        0.0671
     66 H           5.6720   -4.6900    0.0000 H       1  UNL1        0.0647
     67 H           3.6584   -0.3923    0.0000 H       1  UNL1        0.0584
     68 H           4.0569   -1.0826    0.0000 H       1  UNL1        0.0584
     69 H          10.8681    4.6900    0.0000 H       1  UNL1        0.0935
     70 H           5.4641    0.8100    0.0000 H       1  UNL1        0.2100
     71 H           6.5380   -3.8100    0.0000 H       1  UNL1        0.2100
     72 H           8.2700   -2.1900    0.0000 H       1  UNL1        0.2101
     73 H           8.8546    2.6077    0.0000 H       1  UNL1        0.0584
     74 H           9.2531    1.9174    0.0000 H       1  UNL1        0.0584
     75 H           6.0010    3.1200    0.0000 H       1  UNL1        0.2101
     76 H           5.6025   -5.9750    0.0000 H       1  UNL1        0.0584
     77 H           6.3996   -5.9750    0.0000 H       1  UNL1        0.0584
     78 H           7.7331    6.1200    0.0000 H       1  UNL1        0.2100
     79 H           2.0000   -3.8100    0.0000 H       1  UNL1        0.2101
     80 H           2.5369   -6.1200    0.0000 H       1  UNL1        0.2100
     81 H           4.8059   -6.8100    0.0000 H       1  UNL1        0.2100
     82 H          10.0021    6.8100    0.0000 H       1  UNL1        0.2101
     83 H          10.8681    0.6900    0.0000 H       1  UNL1        0.2095
     84 H           3.7320    0.8100    0.0000 H       1  UNL1        0.2095
     85 H          11.7341    5.1900    0.0000 H       1  UNL1        0.2126
     86 H          10.8681    2.3100    0.0000 H       1  UNL1        0.2095
     87 H           7.4040   -5.3100    0.0000 H       1  UNL1        0.2095
@<TRIPOS>BOND
     1     1    22    1
     2     1    26    1
     3     2    26    1
     4     2    30    1
     5     3    28    1
     6     3    31    1
     7     4    23    1
     8     4    33    1
     9     5    31    1
    10     5    32    1
    11     6    33    1
    12     6    41    1
    13     7    24    1
    14     7    70    1
    15     8    35    1
    16     8    43    1
    17     9    25    1
    18     9    71    1
    19    10    27    1
    20    10    72    1
    21    11    29    1
    22    11    75    1
    23    12    34    1
    24    12    78    1
    25    13    36    1
    26    13    79    1
    27    14    37    1
    28    14    80    1
    29    15    38    1
    30    15    81    1
    31    16    40    1
    32    16    82    1
    33    17    39    1
    34    17    83    1
    35    18    42    1
    36    18    84    1
    37    19    43    1
    38    19    85    1
    39    20    44    1
    40    20    86    1
    41    21    45    1
    42    21    87    1
    43    22    24    1
    44    22    28    1
    45    22    46    1
    46    23    25    1
    47    23    30    1
    48    23    47    1
    49    24    29    1
    50    24    48    1
    51    25    27    1
    52    25    49    1
    53    26    27    1
    54    26    50    1
    55    27    51    1
    56    28    39    1
    57    28    52    1
    58    29    31    1
    59    29    53    1
    60    30    42    1
    61    30    54    1
    62    31    55    1
    63    32    34    1
    64    32    35    1
    65    32    56    1
    66    33    36    1
    67    33    57    1
    68    34    40    1
    69    34    58    1
    70    35    44    1
    71    35    59    1
    72    36    37    1
    73    36    60    1
    74    37    38    1
    75    37    61    1
    76    38    41    1
    77    38    62    1
    78    39    63    1
    79    39    64    1
    80    40    43    1
    81    40    65    1
    82    41    45    1
    83    41    66    1
    84    42    67    1
    85    42    68    1
    86    43    69    1
    87    44    73    1
    88    44    74    1
    89    45    76    1
    90    45    77    1
