@<TRIPOS>MOLECULE
IMPHY009924
 42 41 0 0 0
SMALL
GASTEIGER

@<TRIPOS>ATOM
      1 O           2.5369    0.7500    0.0000 O.3     1  UNL1       -0.4775
      2 O           3.4030   -0.7500    0.0000 O.2     1  UNL1       -0.2458
      3 C          10.3312    0.2500    0.0000 C.3     1  UNL1       -0.0531
      4 C           9.4651    0.7500    0.0000 C.3     1  UNL1       -0.0531
      5 C          11.1972    0.7500    0.0000 C.3     1  UNL1       -0.0531
      6 C           8.5991    0.2500    0.0000 C.3     1  UNL1       -0.0530
      7 C          12.0632    0.2500    0.0000 C.3     1  UNL1       -0.0531
      8 C           7.7331    0.7500    0.0000 C.3     1  UNL1       -0.0528
      9 C          12.9292    0.7500    0.0000 C.3     1  UNL1       -0.0533
     10 C           6.8671    0.2500    0.0000 C.3     1  UNL1       -0.0496
     11 C          13.7953    0.2500    0.0000 C.3     1  UNL1       -0.0559
     12 C           6.0010    0.7500    0.0000 C.3     1  UNL1       -0.0343
     13 C          14.6613    0.7500    0.0000 C.3     1  UNL1       -0.0653
     14 C           5.1350    0.2500    0.0000 C.2     1  UNL1       -0.0773
     15 C           4.2690    0.7500    0.0000 C.2     1  UNL1        0.0184
     16 C           3.4030    0.2500    0.0000 C.2     1  UNL1        0.3292
     17 H           9.9326   -0.2249    0.0000 H       1  UNL1        0.0265
     18 H          10.7297   -0.2249    0.0000 H       1  UNL1        0.0265
     19 H           9.8637    1.2250    0.0000 H       1  UNL1        0.0265
     20 H           9.0666    1.2250    0.0000 H       1  UNL1        0.0265
     21 H          11.5957    1.2250    0.0000 H       1  UNL1        0.0265
     22 H          10.7987    1.2250    0.0000 H       1  UNL1        0.0265
     23 H           8.2006   -0.2249    0.0000 H       1  UNL1        0.0265
     24 H           8.9976   -0.2249    0.0000 H       1  UNL1        0.0265
     25 H          11.6647   -0.2249    0.0000 H       1  UNL1        0.0265
     26 H          12.4617   -0.2249    0.0000 H       1  UNL1        0.0265
     27 H           8.1316    1.2250    0.0000 H       1  UNL1        0.0265
     28 H           7.3346    1.2250    0.0000 H       1  UNL1        0.0265
     29 H          13.3278    1.2250    0.0000 H       1  UNL1        0.0265
     30 H          12.5307    1.2250    0.0000 H       1  UNL1        0.0265
     31 H           6.4685   -0.2249    0.0000 H       1  UNL1        0.0268
     32 H           7.2656   -0.2249    0.0000 H       1  UNL1        0.0268
     33 H          13.3967   -0.2249    0.0000 H       1  UNL1        0.0263
     34 H          14.1938   -0.2249    0.0000 H       1  UNL1        0.0263
     35 H           6.3996    1.2250    0.0000 H       1  UNL1        0.0307
     36 H           5.6025    1.2250    0.0000 H       1  UNL1        0.0307
     37 H          14.9713    0.2131    0.0000 H       1  UNL1        0.0230
     38 H          15.1982    1.0600    0.0000 H       1  UNL1        0.0230
     39 H          14.3513    1.2869    0.0000 H       1  UNL1        0.0230
     40 H           5.1350   -0.3700    0.0000 H       1  UNL1        0.0574
     41 H           4.2690    1.3700    0.0000 H       1  UNL1        0.0686
     42 H           2.0000    0.4400    0.0000 H       1  UNL1        0.2954
@<TRIPOS>BOND
     1     1    16    1
     2     1    42    1
     3     2    16    2
     4     3     4    1
     5     3     5    1
     6     3    17    1
     7     3    18    1
     8     4     6    1
     9     4    19    1
    10     4    20    1
    11     5     7    1
    12     5    21    1
    13     5    22    1
    14     6     8    1
    15     6    23    1
    16     6    24    1
    17     7     9    1
    18     7    25    1
    19     7    26    1
    20     8    10    1
    21     8    27    1
    22     8    28    1
    23     9    11    1
    24     9    29    1
    25     9    30    1
    26    10    12    1
    27    10    31    1
    28    10    32    1
    29    11    13    1
    30    11    33    1
    31    11    34    1
    32    12    14    1
    33    12    35    1
    34    12    36    1
    35    13    37    1
    36    13    38    1
    37    13    39    1
    38    14    15    2
    39    14    40    1
    40    15    16    1
    41    15    41    1
