@<TRIPOS>MOLECULE
IMPHY016532
 22 23 0 0 0
SMALL
GASTEIGER

@<TRIPOS>ATOM
      1 C           3.7953   -0.2251    0.0000 C.3     1  UNL1       -0.0382
      2 C           4.0541    0.7408    0.0000 C.3     1  UNL1       -0.0405
      3 C           2.4226   -0.8171    0.0000 C.3     1  UNL1       -0.0408
      4 C           3.3175    1.7234    0.0000 C.3     1  UNL1       -0.0471
      5 C           2.0806    0.1226    0.0000 C.3     1  UNL1       -0.0474
      6 C           5.1943   -0.7339    0.0000 C.3     1  UNL1       -0.0497
      7 C           5.4531    0.2320    0.0000 C.3     1  UNL1       -0.0499
      8 C           2.0000   -1.7234    0.0000 C.3     1  UNL1       -0.0622
      9 H           3.8134   -0.8448    0.0000 H       1  UNL1        0.0303
     10 H           4.0401    0.1210    0.0000 H       1  UNL1        0.0301
     11 H           2.8546   -1.2619    0.0000 H       1  UNL1        0.0301
     12 H           3.6353    2.2558    0.0000 H       1  UNL1        0.0271
     13 H           2.7044    1.8154    0.0000 H       1  UNL1        0.0271
     14 H           1.8863    0.7113    0.0000 H       1  UNL1        0.0271
     15 H           1.4948   -0.0806    0.0000 H       1  UNL1        0.0271
     16 H           4.9993   -1.3225    0.0000 H       1  UNL1        0.0268
     17 H           5.7882   -0.9117    0.0000 H       1  UNL1        0.0268
     18 H           6.0470    0.0542    0.0000 H       1  UNL1        0.0268
     19 H           5.6480    0.8206    0.0000 H       1  UNL1        0.0268
     20 H           1.4381   -1.4614    0.0000 H       1  UNL1        0.0233
     21 H           1.7380   -2.2853    0.0000 H       1  UNL1        0.0233
     22 H           2.5619   -1.9855    0.0000 H       1  UNL1        0.0233
@<TRIPOS>BOND
     1     1     3    1
     2     1     4    1
     3     1     6    1
     4     1     9    1
     5     2     4    1
     6     2     5    1
     7     2     7    1
     8     2    10    1
     9     3     5    1
    10     3     8    1
    11     3    11    1
    12     4    12    1
    13     4    13    1
    14     5    14    1
    15     5    15    1
    16     6     7    1
    17     6    16    1
    18     6    17    1
    19     7    18    1
    20     7    19    1
    21     8    20    1
    22     8    21    1
    23     8    22    1
