@<TRIPOS>MOLECULE
IMPHY001608
 58 61 0 0 0
SMALL
GASTEIGER

@<TRIPOS>ATOM
      1 O           5.7349   -1.9387    0.0000 O.3     1  UNL1       -0.4632
      2 O           4.9454    1.5099    0.0000 O.3     1  UNL1       -0.4608
      3 O           4.3987    1.3234    0.0000 O.3     1  UNL1       -0.3914
      4 O           8.1799   -0.4976    0.0000 O.2     1  UNL1       -0.2912
      5 O           7.4969   -1.7688    0.0000 O.2     1  UNL1       -0.2497
      6 O           3.1244   -2.5530    0.0000 O.3     1  UNL1       -0.4804
      7 O           4.8530   -2.4435    0.0000 O.2     1  UNL1       -0.2507
      8 O           5.4337    3.1717    0.0000 O.2     1  UNL1       -0.2512
      9 C           4.7266   -0.4475    0.0000 C.3     1  UNL1        0.0617
     10 C           5.5962    0.1259    0.0000 C.3     1  UNL1        0.0209
     11 C           6.4971   -0.3079    0.0000 C.3     1  UNL1        0.1360
     12 C           3.8939   -1.0012    0.0000 C.3     1  UNL1        0.0738
     13 C           5.3736    1.1009    0.0000 C.3     1  UNL1        0.0608
     14 C           4.6634    0.5505    0.0000 C.3     1  UNL1        0.1129
     15 C           6.3903    0.8688    0.0000 C.3     1  UNL1       -0.0227
     16 C           2.9980   -0.5569    0.0000 C.3     1  UNL1       -0.0211
     17 C           6.9971    1.8827    0.0000 C.3     1  UNL1       -0.0093
     18 C           4.7964   -1.4868    0.0000 C.3     1  UNL1        0.1026
     19 C           5.9971    1.8827    0.0000 C.3     1  UNL1       -0.0196
     20 C           3.7675    0.9948    0.0000 C.3     1  UNL1       -0.0145
     21 C           2.9348    0.4411    0.0000 C.3     1  UNL1       -0.0437
     22 C           7.3981    0.1259    0.0000 C.2     1  UNL1        0.1761
     23 C           6.5910   -1.3453    0.0000 C.2     1  UNL1        0.3213
     24 C           7.6206    1.1009    0.0000 C.2     1  UNL1       -0.0077
     25 C           3.9571   -1.9992    0.0000 C.2     1  UNL1        0.3091
     26 C           2.0000   -0.6201    0.0000 C.3     1  UNL1       -0.0590
     27 C           2.5537   -1.4528    0.0000 C.3     1  UNL1       -0.0590
     28 C           8.5956    1.3234    0.0000 C.2     1  UNL1       -0.0919
     29 C           4.7098    2.4818    0.0000 C.2     1  UNL1        0.3042
     30 C           3.7504    2.7638    0.0000 C.3     1  UNL1        0.0332
     31 H           4.7486    0.0624    0.0000 H       1  UNL1        0.0348
     32 H           3.3776   -1.3445    0.0000 H       1  UNL1        0.0427
     33 H           5.1689    1.6861    0.0000 H       1  UNL1        0.0597
     34 H           5.2796    0.4816    0.0000 H       1  UNL1        0.0741
     35 H           5.9825    1.3358    0.0000 H       1  UNL1        0.0286
     36 H           5.8202    0.6250    0.0000 H       1  UNL1        0.0286
     37 H           7.1863    2.7114    0.0000 H       1  UNL1        0.0351
     38 H           4.1798   -1.4219    0.0000 H       1  UNL1        0.0704
     39 H           4.6270   -2.0832    0.0000 H       1  UNL1        0.0704
     40 H           6.1351    2.4872    0.0000 H       1  UNL1        0.0296
     41 H           5.4385    2.1517    0.0000 H       1  UNL1        0.0296
     42 H           4.1352    1.4940    0.0000 H       1  UNL1        0.0301
     43 H           3.3398    1.4436    0.0000 H       1  UNL1        0.0301
     44 H           2.6864    1.0091    0.0000 H       1  UNL1        0.0272
     45 H           2.3322    0.2950    0.0000 H       1  UNL1        0.0272
     46 H           1.9608   -0.0014    0.0000 H       1  UNL1        0.0235
     47 H           1.3812   -0.6593    0.0000 H       1  UNL1        0.0235
     48 H           2.0392   -1.2389    0.0000 H       1  UNL1        0.0235
     49 H           1.9983   -1.1774    0.0000 H       1  UNL1        0.0235
     50 H           2.2783   -2.0083    0.0000 H       1  UNL1        0.0235
     51 H           3.1092   -1.7283    0.0000 H       1  UNL1        0.0235
     52 H           3.9442    1.7451    0.0000 H       1  UNL1        0.2098
     53 H           9.0173    0.8689    0.0000 H       1  UNL1        0.0539
     54 H           8.7783    1.9158    0.0000 H       1  UNL1        0.0539
     55 H           3.1636   -3.1717    0.0000 H       1  UNL1        0.2951
     56 H           3.9252    3.3586    0.0000 H       1  UNL1        0.0342
     57 H           3.1555    2.9386    0.0000 H       1  UNL1        0.0342
     58 H           3.5756    2.1689    0.0000 H       1  UNL1        0.0342
@<TRIPOS>BOND
     1     1    18    1
     2     1    23    1
     3    14     2    1
     4     2    29    1
     5    13     3    1
     6     3    52    1
     7     4    22    2
     8     5    23    2
     9     6    25    1
    10     6    55    1
    11     7    25    2
    12     8    29    2
    13     9    10    1
    14     9    12    1
    15     9    14    1
    16     9    18    1
    17    10    11    1
    18    10    13    1
    19    10    31    1
    20    11    15    1
    21    11    22    1
    22    11    23    1
    23    12    16    1
    24    12    25    1
    25    12    32    1
    26    13    19    1
    27    13    33    1
    28    14    20    1
    29    14    34    1
    30    15    17    1
    31    15    35    1
    32    15    36    1
    33    16    21    1
    34    16    26    1
    35    16    27    1
    36    17    19    1
    37    17    24    1
    38    17    37    1
    39    18    38    1
    40    18    39    1
    41    19    40    1
    42    19    41    1
    43    20    21    1
    44    20    42    1
    45    20    43    1
    46    21    44    1
    47    21    45    1
    48    22    24    1
    49    24    28    2
    50    26    46    1
    51    26    47    1
    52    26    48    1
    53    27    49    1
    54    27    50    1
    55    27    51    1
    56    28    53    1
    57    28    54    1
    58    29    30    1
    59    30    56    1
    60    30    57    1
    61    30    58    1
