@<TRIPOS>MOLECULE
IMPHY006173
 21 21 0 0 0
SMALL
GASTEIGER

@<TRIPOS>ATOM
      1 O           3.7320    2.0000    0.0000 O.3     1  UNL1       -0.4677
      2 O           4.5981    0.5000    0.0000 O.2     1  UNL1       -0.2505
      3 C           2.8660   -0.5000    0.0000 C.ar    1  UNL1       -0.0368
      4 C           2.8660    0.5000    0.0000 C.3     1  UNL1        0.0700
      5 C           2.0000   -1.0000    0.0000 C.ar    1  UNL1       -0.0581
      6 C           3.7320   -1.0000    0.0000 C.ar    1  UNL1       -0.0581
      7 C           3.7320    1.0000    0.0000 C.2     1  UNL1        0.3112
      8 C           2.0000   -2.0000    0.0000 C.ar    1  UNL1       -0.0615
      9 C           3.7320   -2.0000    0.0000 C.ar    1  UNL1       -0.0615
     10 C           2.8660   -2.5000    0.0000 C.ar    1  UNL1       -0.0617
     11 C           4.5981    2.5000    0.0000 C.3     1  UNL1        0.0817
     12 H           2.6540    1.0826    0.0000 H       1  UNL1        0.0426
     13 H           2.2554    0.3923    0.0000 H       1  UNL1        0.0426
     14 H           1.4631   -0.6900    0.0000 H       1  UNL1        0.0620
     15 H           4.2690   -0.6900    0.0000 H       1  UNL1        0.0620
     16 H           1.4631   -2.3100    0.0000 H       1  UNL1        0.0618
     17 H           4.2690   -2.3100    0.0000 H       1  UNL1        0.0618
     18 H           2.8660   -3.1200    0.0000 H       1  UNL1        0.0618
     19 H           4.9081    1.9631    0.0000 H       1  UNL1        0.0661
     20 H           5.1350    2.8100    0.0000 H       1  UNL1        0.0661
     21 H           4.2881    3.0369    0.0000 H       1  UNL1        0.0661
@<TRIPOS>BOND
     1     1     7    1
     2     1    11    1
     3     2     7    2
     4     3     4    1
     5     3     5   ar
     6     3     6   ar
     7     4     7    1
     8     4    12    1
     9     4    13    1
    10     5     8   ar
    11     5    14    1
    12     6     9   ar
    13     6    15    1
    14     8    10   ar
    15     8    16    1
    16     9    10   ar
    17     9    17    1
    18    10    18    1
    19    11    19    1
    20    11    20    1
    21    11    21    1
