@<TRIPOS>MOLECULE
IMPHY007824
 52 53 0 0 0
SMALL
GASTEIGER

@<TRIPOS>ATOM
      1 CL          3.7320   -6.4330    0.0000 Cl      1  UNL1       -0.0820
      2 CL          2.0000   -5.4330    0.0000 Cl      1  UNL1       -0.0820
      3 S           8.9282    5.5670    0.0000 S.O2    1  UNL1        0.0403
      4 O           8.0622   -0.9330    0.0000 O.3     1  UNL1       -0.3872
      5 O           8.0622    1.0670    0.0000 O.3     1  UNL1       -0.4894
      6 O           8.4282    6.4330    0.0000 O.2     1  UNL1       -0.1555
      7 O           9.4282    4.7010    0.0000 O.2     1  UNL1       -0.1555
      8 N           6.3301   -1.9330    0.0000 N.3     1  UNL1       -0.3025
      9 N           8.0622    5.0670    0.0000 N.pl3   1  UNL1       -0.2209
     10 C           6.3301   -0.9330    0.0000 C.3     1  UNL1        0.0279
     11 C           5.4641   -2.4330    0.0000 C.3     1  UNL1        0.0027
     12 C           7.1962   -0.4330    0.0000 C.3     1  UNL1        0.1017
     13 C           5.4641   -3.4330    0.0000 C.3     1  UNL1       -0.0148
     14 C           7.1962    0.5670    0.0000 C.3     1  UNL1        0.1166
     15 C           7.1962   -2.4330    0.0000 C.3     1  UNL1       -0.0127
     16 C           4.5981   -3.9330    0.0000 C.ar    1  UNL1       -0.0447
     17 C           4.5981   -4.9330    0.0000 C.ar    1  UNL1       -0.0387
     18 C           3.7320   -3.4330    0.0000 C.ar    1  UNL1       -0.0571
     19 C           8.0622    2.0670    0.0000 C.ar    1  UNL1        0.1207
     20 C           3.7320   -5.4330    0.0000 C.ar    1  UNL1        0.0595
     21 C           2.8660   -3.9330    0.0000 C.ar    1  UNL1       -0.0417
     22 C           8.9282    2.5670    0.0000 C.ar    1  UNL1       -0.0182
     23 C           7.1962    2.5670    0.0000 C.ar    1  UNL1       -0.0182
     24 C           8.0622    4.0670    0.0000 C.ar    1  UNL1        0.0479
     25 C           2.8660   -4.9330    0.0000 C.ar    1  UNL1        0.0593
     26 C           8.9282    3.5670    0.0000 C.ar    1  UNL1       -0.0359
     27 C           7.1962    3.5670    0.0000 C.ar    1  UNL1       -0.0359
     28 C           9.7942    6.0670    0.0000 C.3     1  UNL1        0.0736
     29 H           6.1181   -0.3504    0.0000 H       1  UNL1        0.0453
     30 H           5.7196   -1.0407    0.0000 H       1  UNL1        0.0453
     31 H           5.2520   -1.8504    0.0000 H       1  UNL1        0.0430
     32 H           4.8535   -2.5407    0.0000 H       1  UNL1        0.0430
     33 H           7.9323   -0.0080    0.0000 H       1  UNL1        0.0640
     34 H           5.6762   -4.0156    0.0000 H       1  UNL1        0.0326
     35 H           6.0747   -3.3254    0.0000 H       1  UNL1        0.0326
     36 H           6.9841    1.1496    0.0000 H       1  UNL1        0.0723
     37 H           6.5856    0.4593    0.0000 H       1  UNL1        0.0723
     38 H           6.8862   -2.9700    0.0000 H       1  UNL1        0.0391
     39 H           7.7331   -2.7430    0.0000 H       1  UNL1        0.0391
     40 H           7.5062   -1.8961    0.0000 H       1  UNL1        0.0391
     41 H           8.0622   -1.5530    0.0000 H       1  UNL1        0.2100
     42 H           5.1350   -5.2430    0.0000 H       1  UNL1        0.0635
     43 H           3.7320   -2.8130    0.0000 H       1  UNL1        0.0621
     44 H           2.3291   -3.6230    0.0000 H       1  UNL1        0.0633
     45 H           9.4651    2.2570    0.0000 H       1  UNL1        0.0655
     46 H           6.6592    2.2570    0.0000 H       1  UNL1        0.0655
     47 H           9.4651    3.8770    0.0000 H       1  UNL1        0.0638
     48 H           6.6592    3.8770    0.0000 H       1  UNL1        0.0638
     49 H           7.5252    5.3770    0.0000 H       1  UNL1        0.1733
     50 H          10.1042    5.5300    0.0000 H       1  UNL1        0.0482
     51 H          10.3312    6.3770    0.0000 H       1  UNL1        0.0482
     52 H           9.4842    6.6039    0.0000 H       1  UNL1        0.0482
@<TRIPOS>BOND
     1     1    20    1
     2     2    25    1
     3     3     6    2
     4     3     7    2
     5     3     9    1
     6     3    28    1
     7     4    12    1
     8     4    41    1
     9     5    14    1
    10     5    19    1
    11     8    10    1
    12     8    11    1
    13     8    15    1
    14     9    24    1
    15     9    49    1
    16    10    12    1
    17    10    29    1
    18    10    30    1
    19    11    13    1
    20    11    31    1
    21    11    32    1
    22    12    14    1
    23    12    33    1
    24    13    16    1
    25    13    34    1
    26    13    35    1
    27    14    36    1
    28    14    37    1
    29    15    38    1
    30    15    39    1
    31    15    40    1
    32    16    17   ar
    33    16    18   ar
    34    17    20   ar
    35    17    42    1
    36    18    21   ar
    37    18    43    1
    38    19    22   ar
    39    19    23   ar
    40    20    25   ar
    41    21    25   ar
    42    21    44    1
    43    22    26   ar
    44    22    45    1
    45    23    27   ar
    46    23    46    1
    47    24    26   ar
    48    24    27   ar
    49    26    47    1
    50    27    48    1
    51    28    50    1
    52    28    51    1
    53    28    52    1
