@<TRIPOS>MOLECULE
IMPHY008732
 37 39 0 0 0
SMALL
GASTEIGER

@<TRIPOS>ATOM
      1 O           7.2785    1.7623    0.0000 O.3     1  UNL1       -0.4906
      2 O           9.0602    0.7519    0.0000 O.3     1  UNL1       -0.4885
      3 O           3.7817    1.7623    0.0000 O.3     1  UNL1       -0.5058
      4 O           5.5301    1.7277    0.0000 O.2     1  UNL1       -0.2864
      5 O           5.5301   -2.2723    0.0000 O.2     1  UNL1       -0.2866
      6 O           9.0602   -1.2964    0.0000 O.3     1  UNL1       -0.5032
      7 C           6.3961    0.2277    0.0000 C.ar    1  UNL1        0.0786
      8 C           4.6641    0.2277    0.0000 C.ar    1  UNL1        0.0748
      9 C           6.3961   -0.7723    0.0000 C.ar    1  UNL1        0.0403
     10 C           4.6641   -0.7723    0.0000 C.ar    1  UNL1        0.0366
     11 C           5.5301    0.7277    0.0000 C.2     1  UNL1        0.2016
     12 C           5.5301   -1.2723    0.0000 C.2     1  UNL1        0.1949
     13 C           7.2901    0.7624    0.0000 C.ar    1  UNL1        0.1767
     14 C           3.7702    0.7624    0.0000 C.ar    1  UNL1        0.1312
     15 C           7.2901   -1.3070    0.0000 C.ar    1  UNL1       -0.0048
     16 C           3.7702   -1.3070    0.0000 C.ar    1  UNL1       -0.0498
     17 C           2.8641    0.2485    0.0000 C.ar    1  UNL1       -0.0083
     18 C           8.1962    0.2485    0.0000 C.ar    1  UNL1        0.2040
     19 C           8.1962   -0.7931    0.0000 C.ar    1  UNL1        0.1629
     20 C           2.8641   -0.7931    0.0000 C.ar    1  UNL1       -0.0547
     21 C           2.0000    0.7519    0.0000 C.3     1  UNL1       -0.0362
     22 C           8.1387    2.2723    0.0000 C.3     1  UNL1        0.0790
     23 C           9.9282    0.2552    0.0000 C.3     1  UNL1        0.0791
     24 H           7.2829   -1.9269    0.0000 H       1  UNL1        0.0662
     25 H           3.7773   -1.9269    0.0000 H       1  UNL1        0.0625
     26 H           2.3284   -1.1052    0.0000 H       1  UNL1        0.0622
     27 H           2.3121    1.2876    0.0000 H       1  UNL1        0.0279
     28 H           1.4643    1.0639    0.0000 H       1  UNL1        0.0279
     29 H           1.6879    0.2161    0.0000 H       1  UNL1        0.0279
     30 H           3.2484    2.0785    0.0000 H       1  UNL1        0.2922
     31 H           9.0579   -1.9164    0.0000 H       1  UNL1        0.2923
     32 H           8.4549    1.7390    0.0000 H       1  UNL1        0.0660
     33 H           8.6720    2.5885    0.0000 H       1  UNL1        0.0660
     34 H           7.8225    2.8056    0.0000 H       1  UNL1        0.0660
     35 H           9.6203   -0.2829    0.0000 H       1  UNL1        0.0660
     36 H          10.4663   -0.0527    0.0000 H       1  UNL1        0.0660
     37 H          10.2361    0.7933    0.0000 H       1  UNL1        0.0660
@<TRIPOS>BOND
     1     1    13    1
     2     1    22    1
     3     2    18    1
     4     2    23    1
     5     3    14    1
     6     3    30    1
     7     4    11    2
     8     5    12    2
     9     6    19    1
    10     6    31    1
    11     7     9   ar
    12     7    11    1
    13     7    13   ar
    14     8    10   ar
    15     8    11    1
    16     8    14   ar
    17     9    12    1
    18     9    15   ar
    19    10    12    1
    20    10    16   ar
    21    13    18   ar
    22    14    17   ar
    23    15    19   ar
    24    15    24    1
    25    16    20   ar
    26    16    25    1
    27    17    20   ar
    28    17    21    1
    29    18    19   ar
    30    20    26    1
    31    21    27    1
    32    21    28    1
    33    21    29    1
    34    22    32    1
    35    22    33    1
    36    22    34    1
    37    23    35    1
    38    23    36    1
    39    23    37    1
