@<TRIPOS>MOLECULE
IMPHY013329
 64 67 0 0 0
SMALL
GASTEIGER

@<TRIPOS>ATOM
      1 C           6.5251    0.2400    0.0000 C.3     1  UNL1       -0.0259
      2 C           6.5251   -0.7600    0.0000 C.3     1  UNL1       -0.0323
      3 C           5.6591   -1.2600    0.0000 C.3     1  UNL1       -0.0344
      4 C           4.7931   -0.7600    0.0000 C.3     1  UNL1       -0.0323
      5 C           3.8831   -1.2669    0.0000 C.3     1  UNL1       -0.0261
      6 C           7.4714    0.5447    0.0000 C.3     1  UNL1       -0.0325
      7 C           5.6591    0.7400    0.0000 C.3     1  UNL1       -0.0468
      8 C           3.8751   -2.3085    0.0000 C.3     1  UNL1       -0.0354
      9 C           4.7931    0.2400    0.0000 C.3     1  UNL1       -0.0489
     10 C           7.4714   -1.0648    0.0000 C.3     1  UNL1       -0.0492
     11 C           5.6752   -2.3015    0.0000 C.3     1  UNL1       -0.0494
     12 C           8.0550   -0.2600    0.0000 C.3     1  UNL1       -0.0492
     13 C           4.7771   -2.8293    0.0000 C.3     1  UNL1       -0.0494
     14 C           2.9562   -0.7028    0.0000 C.3     1  UNL1       -0.0471
     15 C           6.5251    1.2400    0.0000 C.3     1  UNL1       -0.0590
     16 C           7.7820    1.4952    0.0000 C.3     1  UNL1       -0.0371
     17 C           2.9396   -2.8582    0.0000 C.3     1  UNL1       -0.0497
     18 C           3.8908   -0.2669    0.0000 C.3     1  UNL1       -0.0590
     19 C           2.0084   -1.2307    0.0000 C.3     1  UNL1       -0.0525
     20 C           2.0000   -2.3157    0.0000 C.3     1  UNL1       -0.0528
     21 C           8.7605    1.7014    0.0000 C.3     1  UNL1       -0.0322
     22 C           7.1142    2.2395    0.0000 C.3     1  UNL1       -0.0619
     23 C           9.0712    2.6520    0.0000 C.2     1  UNL1       -0.0908
     24 C          10.0497    2.8582    0.0000 C.2     1  UNL1       -0.1026
     25 H           6.6151   -1.6052    0.0000 H       1  UNL1        0.0309
     26 H           6.3985   -1.6793    0.0000 H       1  UNL1        0.0306
     27 H           5.5292   -0.3350    0.0000 H       1  UNL1        0.0309
     28 H           8.3111    0.6766    0.0000 H       1  UNL1        0.0309
     29 H           6.0576    1.2149    0.0000 H       1  UNL1        0.0271
     30 H           5.2606    1.2149    0.0000 H       1  UNL1        0.0271
     31 H           3.8774   -2.9285    0.0000 H       1  UNL1        0.0306
     32 H           4.5810    0.8226    0.0000 H       1  UNL1        0.0268
     33 H           4.1825    0.1323    0.0000 H       1  UNL1        0.0268
     34 H           7.2203   -1.6317    0.0000 H       1  UNL1        0.0268
     35 H           8.0087   -1.3740    0.0000 H       1  UNL1        0.0268
     36 H           5.8932   -2.8819    0.0000 H       1  UNL1        0.0268
     37 H           6.2843   -2.1860    0.0000 H       1  UNL1        0.0268
     38 H           8.5158   -0.6747    0.0000 H       1  UNL1        0.0268
     39 H           8.5158    0.1547    0.0000 H       1  UNL1        0.0268
     40 H           4.3798   -3.3052    0.0000 H       1  UNL1        0.0268
     41 H           5.1781   -3.3022    0.0000 H       1  UNL1        0.0268
     42 H           3.3645   -0.2361    0.0000 H       1  UNL1        0.0271
     43 H           2.5663   -0.2207    0.0000 H       1  UNL1        0.0271
     44 H           7.1451    1.2400    0.0000 H       1  UNL1        0.0235
     45 H           6.5251    1.8600    0.0000 H       1  UNL1        0.0235
     46 H           5.9051    1.2400    0.0000 H       1  UNL1        0.0235
     47 H           7.9746    2.0846    0.0000 H       1  UNL1        0.0304
     48 H           2.5423   -3.3342    0.0000 H       1  UNL1        0.0268
     49 H           3.3406   -3.3311    0.0000 H       1  UNL1        0.0268
     50 H           4.5108   -0.2717    0.0000 H       1  UNL1        0.0235
     51 H           3.8956    0.3531    0.0000 H       1  UNL1        0.0235
     52 H           3.2708   -0.2621    0.0000 H       1  UNL1        0.0235
     53 H           1.8038   -0.6454    0.0000 H       1  UNL1        0.0265
     54 H           1.3967   -1.3321    0.0000 H       1  UNL1        0.0265
     55 H           1.3900   -2.2049    0.0000 H       1  UNL1        0.0265
     56 H           1.7864   -2.8978    0.0000 H       1  UNL1        0.0265
     57 H           8.7811    1.0818    0.0000 H       1  UNL1        0.0310
     58 H           9.3743    1.6141    0.0000 H       1  UNL1        0.0310
     59 H           7.5756    2.6536    0.0000 H       1  UNL1        0.0233
     60 H           6.7001    2.7010    0.0000 H       1  UNL1        0.0233
     61 H           6.6527    1.8255    0.0000 H       1  UNL1        0.0233
     62 H           8.6571    3.1134    0.0000 H       1  UNL1        0.0566
     63 H          10.4638    2.3967    0.0000 H       1  UNL1        0.0532
     64 H          10.2423    3.4475    0.0000 H       1  UNL1        0.0532
@<TRIPOS>BOND
     1     1     2    1
     2     1     6    1
     3     1     7    1
     4     1    15    1
     5     2     3    1
     6     2    10    1
     7     2    25    1
     8     3     4    1
     9     3    11    1
    10     3    26    1
    11     4     5    1
    12     4     9    1
    13     4    27    1
    14     5     8    1
    15     5    14    1
    16     5    18    1
    17     6    12    1
    18     6    16    1
    19     6    28    1
    20     7     9    1
    21     7    29    1
    22     7    30    1
    23     8    13    1
    24     8    17    1
    25     8    31    1
    26     9    32    1
    27     9    33    1
    28    10    12    1
    29    10    34    1
    30    10    35    1
    31    11    13    1
    32    11    36    1
    33    11    37    1
    34    12    38    1
    35    12    39    1
    36    13    40    1
    37    13    41    1
    38    14    19    1
    39    14    42    1
    40    14    43    1
    41    15    44    1
    42    15    45    1
    43    15    46    1
    44    16    21    1
    45    16    22    1
    46    16    47    1
    47    17    20    1
    48    17    48    1
    49    17    49    1
    50    18    50    1
    51    18    51    1
    52    18    52    1
    53    19    20    1
    54    19    53    1
    55    19    54    1
    56    20    55    1
    57    20    56    1
    58    21    23    1
    59    21    57    1
    60    21    58    1
    61    22    59    1
    62    22    60    1
    63    22    61    1
    64    23    24    2
    65    23    62    1
    66    24    63    1
    67    24    64    1
