@<TRIPOS>MOLECULE
IMPHY013041
 45 48 0 0 0
SMALL
GASTEIGER

@<TRIPOS>ATOM
      1 O          10.4366    0.2421    0.0000 O.3     1  UNL1       -0.4811
      2 O           6.9006    0.2699    0.0000 O.2     1  UNL1       -0.4538
      3 O           8.6605   -2.7648    0.0000 O.3     1  UNL1       -0.5055
      4 O           6.9121   -2.7994    0.0000 O.2     1  UNL1       -0.2869
      5 O           4.2740    2.7627    0.0000 O.3     1  UNL1       -0.5033
      6 O           2.5381    1.7694    0.0000 O.3     1  UNL1       -0.5033
      7 C          10.4446    1.2837    0.0000 C.3     1  UNL1        0.1235
      8 C           8.6605    0.2352    0.0000 C.ar    1  UNL1        0.0600
      9 C           9.5266   -0.2648    0.0000 C.ar    1  UNL1        0.1388
     10 C           7.7945   -0.2648    0.0000 C.ar    1  UNL1        0.1534
     11 C           9.5425    1.8045    0.0000 C.2     1  UNL1       -0.0408
     12 C           9.5266   -1.2648    0.0000 C.ar    1  UNL1        0.0341
     13 C           7.7945   -1.2648    0.0000 C.ar    1  UNL1        0.1063
     14 C           8.6445    1.2767    0.0000 C.2     1  UNL1       -0.0478
     15 C          10.9479    2.1478    0.0000 C.3     1  UNL1       -0.0215
     16 C          11.4446    1.2798    0.0000 C.3     1  UNL1       -0.0215
     17 C           8.6605   -1.7648    0.0000 C.ar    1  UNL1        0.1376
     18 C           6.9006   -1.7994    0.0000 C.ar    1  UNL1        0.1966
     19 C          10.3926   -1.7648    0.0000 C.3     1  UNL1       -0.0327
     20 C           5.9945   -0.2440    0.0000 C.ar    1  UNL1        0.1394
     21 C           5.9945   -1.2856    0.0000 C.ar    1  UNL1        0.0288
     22 C           5.1304    0.2594    0.0000 C.ar    1  UNL1        0.0211
     23 C           5.1343    1.2594    0.0000 C.ar    1  UNL1       -0.0059
     24 C           4.2625   -0.2373    0.0000 C.ar    1  UNL1       -0.0474
     25 C           4.2702    1.7627    0.0000 C.ar    1  UNL1        0.1589
     26 C           3.3984    0.2661    0.0000 C.ar    1  UNL1       -0.0159
     27 C           3.4022    1.2660    0.0000 C.ar    1  UNL1        0.1583
     28 H           9.5401    2.4245    0.0000 H       1  UNL1        0.0611
     29 H           8.1040    1.5805    0.0000 H       1  UNL1        0.0624
     30 H          11.4837    1.8357    0.0000 H       1  UNL1        0.0271
     31 H          11.2600    2.6835    0.0000 H       1  UNL1        0.0271
     32 H          10.4122    2.4598    0.0000 H       1  UNL1        0.0271
     33 H          11.4422    0.6598    0.0000 H       1  UNL1        0.0271
     34 H          12.0646    1.2774    0.0000 H       1  UNL1        0.0271
     35 H          11.4470    1.8998    0.0000 H       1  UNL1        0.0271
     36 H          10.0826   -2.3017    0.0000 H       1  UNL1        0.0280
     37 H          10.9295   -2.0748    0.0000 H       1  UNL1        0.0280
     38 H          10.7026   -1.2278    0.0000 H       1  UNL1        0.0280
     39 H           5.4588   -1.5976    0.0000 H       1  UNL1        0.0693
     40 H           9.1975   -3.0748    0.0000 H       1  UNL1        0.2922
     41 H           5.6724    1.5673    0.0000 H       1  UNL1        0.0662
     42 H           4.2601   -0.8573    0.0000 H       1  UNL1        0.0626
     43 H           2.8602   -0.0419    0.0000 H       1  UNL1        0.0655
     44 H           3.7383    3.0748    0.0000 H       1  UNL1        0.2923
     45 H           2.0000    1.4615    0.0000 H       1  UNL1        0.2923
@<TRIPOS>BOND
     1     1     7    1
     2     1     9    1
     3     2    10   ar
     4     2    20   ar
     5     3    17    1
     6     3    40    1
     7     4    18    2
     8     5    25    1
     9     5    44    1
    10     6    27    1
    11     6    45    1
    12     7    11    1
    13     7    15    1
    14     7    16    1
    15     8     9   ar
    16     8    10   ar
    17     8    14    1
    18     9    12   ar
    19    10    13   ar
    20    11    14    2
    21    11    28    1
    22    12    17   ar
    23    12    19    1
    24    13    17   ar
    25    13    18   ar
    26    14    29    1
    27    15    30    1
    28    15    31    1
    29    15    32    1
    30    16    33    1
    31    16    34    1
    32    16    35    1
    33    18    21   ar
    34    19    36    1
    35    19    37    1
    36    19    38    1
    37    20    21   ar
    38    20    22    1
    39    21    39    1
    40    22    23   ar
    41    22    24   ar
    42    23    25   ar
    43    23    41    1
    44    24    26   ar
    45    24    42    1
    46    25    27   ar
    47    26    27   ar
    48    26    43    1
