@<TRIPOS>MOLECULE
IMPHY005292
 76 81 0 0 0
SMALL
GASTEIGER

@<TRIPOS>ATOM
      1 O          10.4400   -1.4126    0.0000 O.2     1  UNL1       -0.2916
      2 O           8.6663    0.8490    0.0000 O.3     1  UNL1       -0.5060
      3 O          10.3984   -2.1510    0.0000 O.3     1  UNL1       -0.5064
      4 O           6.0682   -0.6510    0.0000 O.3     1  UNL1       -0.4827
      5 O          12.5324    2.8131    0.0000 O.3     1  UNL1       -0.5064
      6 O          11.5534   -2.7394    0.0000 O.3     1  UNL1       -0.5059
      7 O          15.5324    1.0810    0.0000 O.3     1  UNL1       -0.5066
      8 O           6.0682    2.3490    0.0000 O.2     1  UNL1       -0.2917
      9 O          14.9648   -2.1379    0.0000 O.3     1  UNL1       -0.5066
     10 O           4.3198    2.3836    0.0000 O.3     1  UNL1       -0.5058
     11 O           2.5381   -0.6752    0.0000 O.3     1  UNL1       -0.5065
     12 C          11.0324    0.2150    0.0000 C.3     1  UNL1        0.0399
     13 C          11.5324    1.0810    0.0000 C.3     1  UNL1        0.0019
     14 C          10.0324    0.2150    0.0000 C.3     1  UNL1        0.0198
     15 C          11.0324    1.9470    0.0000 C.3     1  UNL1       -0.0244
     16 C           9.5323    1.0810    0.0000 C.2     1  UNL1       -0.0767
     17 C          10.0324    1.9470    0.0000 C.2     1  UNL1       -0.0753
     18 C           9.5323   -0.6510    0.0000 C.ar    1  UNL1        0.0432
     19 C          12.5324    1.0810    0.0000 C.ar    1  UNL1       -0.0016
     20 C          11.2061   -0.7698    0.0000 C.2     1  UNL1        0.1712
     21 C           8.6663   -0.1510    0.0000 C.ar    1  UNL1        0.1307
     22 C           9.5323    2.8131    0.0000 C.3     1  UNL1       -0.0437
     23 C           9.5323   -1.6510    0.0000 C.ar    1  UNL1        0.1241
     24 C          13.0324    1.9470    0.0000 C.ar    1  UNL1        0.1238
     25 C          12.1457   -1.1118    0.0000 C.ar    1  UNL1        0.0593
     26 C          13.0324    0.2150    0.0000 C.ar    1  UNL1       -0.0514
     27 C           7.8003   -0.6510    0.0000 C.ar    1  UNL1        0.0350
     28 C           6.9343   -0.1510    0.0000 C.3     1  UNL1        0.1355
     29 C           8.6663   -2.1510    0.0000 C.ar    1  UNL1       -0.0193
     30 C           7.8003   -1.6510    0.0000 C.ar    1  UNL1       -0.0481
     31 C          14.0324    1.9470    0.0000 C.ar    1  UNL1        0.0216
     32 C          14.0324    0.2150    0.0000 C.ar    1  UNL1       -0.0197
     33 C           6.9343    0.8490    0.0000 C.3     1  UNL1        0.0521
     34 C          12.3193   -2.0966    0.0000 C.ar    1  UNL1        0.1308
     35 C          12.9117   -0.4691    0.0000 C.ar    1  UNL1       -0.0443
     36 C          14.5324    1.0810    0.0000 C.ar    1  UNL1        0.1203
     37 C           6.0682    1.3490    0.0000 C.2     1  UNL1        0.1740
     38 C           5.2022   -0.1510    0.0000 C.ar    1  UNL1        0.1389
     39 C           5.2022    0.8490    0.0000 C.ar    1  UNL1        0.1007
     40 C          13.2590   -2.4387    0.0000 C.ar    1  UNL1        0.0220
     41 C          13.8514   -0.8111    0.0000 C.ar    1  UNL1       -0.0193
     42 C          14.0251   -1.7959    0.0000 C.ar    1  UNL1        0.1204
     43 C           4.3083    1.3836    0.0000 C.ar    1  UNL1        0.1343
     44 C           4.3083   -0.6857    0.0000 C.ar    1  UNL1        0.0225
     45 C           3.4022   -0.1719    0.0000 C.ar    1  UNL1        0.1238
     46 C           3.4022    0.8698    0.0000 C.ar    1  UNL1        0.0222
     47 H          11.6429    0.1074    0.0000 H       1  UNL1        0.0396
     48 H          11.9574    0.3449    0.0000 H       1  UNL1        0.0360
     49 H           9.1824    0.2150    0.0000 H       1  UNL1        0.0401
     50 H          11.6150    2.1591    0.0000 H       1  UNL1        0.0316
     51 H          10.9247    2.5576    0.0000 H       1  UNL1        0.0316
     52 H           8.9124    1.0810    0.0000 H       1  UNL1        0.0578
     53 H          10.0693    3.1231    0.0000 H       1  UNL1        0.0274
     54 H           9.2224    3.3500    0.0000 H       1  UNL1        0.0274
     55 H           8.9954    2.5031    0.0000 H       1  UNL1        0.0274
     56 H          12.7224   -0.3219    0.0000 H       1  UNL1        0.0623
     57 H           6.9343   -1.0010    0.0000 H       1  UNL1        0.0790
     58 H           8.6663   -2.7710    0.0000 H       1  UNL1        0.0654
     59 H           7.2634   -1.9610    0.0000 H       1  UNL1        0.0624
     60 H          14.3424    2.4840    0.0000 H       1  UNL1        0.0691
     61 H          14.3424   -0.3219    0.0000 H       1  UNL1        0.0654
     62 H           7.5449    0.7413    0.0000 H       1  UNL1        0.0385
     63 H           7.1463    1.4316    0.0000 H       1  UNL1        0.0385
     64 H          12.8041    0.1415    0.0000 H       1  UNL1        0.0627
     65 H           8.1294    1.1590    0.0000 H       1  UNL1        0.2922
     66 H          10.3984   -2.7710    0.0000 H       1  UNL1        0.2921
     67 H          12.8424    3.3500    0.0000 H       1  UNL1        0.2921
     68 H          13.3667   -3.0492    0.0000 H       1  UNL1        0.0691
     69 H          14.3264   -0.4125    0.0000 H       1  UNL1        0.0654
     70 H          11.6611   -3.3500    0.0000 H       1  UNL1        0.2922
     71 H           4.3154   -1.3057    0.0000 H       1  UNL1        0.0691
     72 H          15.8424    0.5441    0.0000 H       1  UNL1        0.2921
     73 H           2.8665    1.1818    0.0000 H       1  UNL1        0.0691
     74 H          15.0724   -2.7485    0.0000 H       1  UNL1        0.2921
     75 H           3.7865    2.6997    0.0000 H       1  UNL1        0.2922
     76 H           2.0000   -0.3673    0.0000 H       1  UNL1        0.2921
@<TRIPOS>BOND
     1     1    20    2
     2     2    21    1
     3     2    65    1
     4     3    23    1
     5     3    66    1
     6     4    28    1
     7     4    38    1
     8     5    24    1
     9     5    67    1
    10     6    34    1
    11     6    70    1
    12     7    36    1
    13     7    72    1
    14     8    37    2
    15     9    42    1
    16     9    74    1
    17    10    43    1
    18    10    75    1
    19    11    45    1
    20    11    76    1
    21    12    13    1
    22    12    14    1
    23    12    20    1
    24    12    47    1
    25    13    15    1
    26    13    19    1
    27    13    48    1
    28    14    16    1
    29    14    18    1
    30    14    49    1
    31    15    17    1
    32    15    50    1
    33    15    51    1
    34    16    17    2
    35    16    52    1
    36    17    22    1
    37    18    21   ar
    38    18    23   ar
    39    19    24   ar
    40    19    26   ar
    41    20    25    1
    42    21    27   ar
    43    22    53    1
    44    22    54    1
    45    22    55    1
    46    23    29   ar
    47    24    31   ar
    48    25    34   ar
    49    25    35   ar
    50    26    32   ar
    51    26    56    1
    52    27    28    1
    53    27    30   ar
    54    28    33    1
    55    28    57    1
    56    29    30   ar
    57    29    58    1
    58    30    59    1
    59    31    36   ar
    60    31    60    1
    61    32    36   ar
    62    32    61    1
    63    33    37    1
    64    33    62    1
    65    33    63    1
    66    34    40   ar
    67    35    41   ar
    68    35    64    1
    69    37    39    1
    70    38    39   ar
    71    38    44   ar
    72    39    43   ar
    73    40    42   ar
    74    40    68    1
    75    41    42   ar
    76    41    69    1
    77    43    46   ar
    78    44    45   ar
    79    44    71    1
    80    45    46   ar
    81    46    73    1
