@<TRIPOS>MOLECULE
IMPHY007825
 50 52 0 0 0
SMALL
GASTEIGER

@<TRIPOS>ATOM
      1 O           6.0010   -2.0000    0.0000 O.3     1  UNL1       -0.4476
      2 O           6.0010    2.0000    0.0000 O.3     1  UNL1       -0.4476
      3 O           7.7331    1.0000    0.0000 O.3     1  UNL1       -0.5008
      4 O           7.7331   -1.0000    0.0000 O.3     1  UNL1       -0.5008
      5 O           4.2690   -1.0000    0.0000 O.3     1  UNL1       -0.5008
      6 O           2.5369   -2.0000    0.0000 O.3     1  UNL1       -0.5008
      7 O           6.0010    4.0000    0.0000 O.3     1  UNL1       -0.5009
      8 O           2.5369   -4.0000    0.0000 O.3     1  UNL1       -0.5032
      9 O           7.7331    5.0000    0.0000 O.3     1  UNL1       -0.5032
     10 O           3.4030    0.5000    0.0000 O.3     1  UNL1       -0.4770
     11 O           4.2690    2.0000    0.0000 O.2     1  UNL1       -0.2450
     12 O           6.0010   -5.0000    0.0000 O.3     1  UNL1       -0.4770
     13 O           6.8671   -3.5000    0.0000 O.2     1  UNL1       -0.2450
     14 O          10.3312    2.5000    0.0000 O.3     1  UNL1       -0.4771
     15 O           9.4651    1.0000    0.0000 O.2     1  UNL1       -0.2451
     16 C           6.0010    1.0000    0.0000 C.ar    1  UNL1        0.1876
     17 C           6.0010   -1.0000    0.0000 C.ar    1  UNL1        0.1745
     18 C           5.1350    0.5000    0.0000 C.ar    1  UNL1        0.1083
     19 C           6.8671    0.5000    0.0000 C.ar    1  UNL1        0.2060
     20 C           6.8671   -0.5000    0.0000 C.ar    1  UNL1        0.2052
     21 C           5.1350   -0.5000    0.0000 C.ar    1  UNL1        0.0021
     22 C           5.1350   -2.5000    0.0000 C.ar    1  UNL1        0.1876
     23 C           6.8671    2.5000    0.0000 C.ar    1  UNL1        0.1743
     24 C           5.1350   -3.5000    0.0000 C.ar    1  UNL1        0.1083
     25 C           4.2690   -2.0000    0.0000 C.ar    1  UNL1        0.2060
     26 C           4.2690   -4.0000    0.0000 C.ar    1  UNL1        0.0013
     27 C           3.4030   -2.5000    0.0000 C.ar    1  UNL1        0.2044
     28 C           6.8671    3.5000    0.0000 C.ar    1  UNL1        0.2015
     29 C           7.7331    2.0000    0.0000 C.ar    1  UNL1       -0.0015
     30 C           3.4030   -3.5000    0.0000 C.ar    1  UNL1        0.1630
     31 C           8.5991    2.5000    0.0000 C.ar    1  UNL1        0.0660
     32 C           4.2690    1.0000    0.0000 C.2     1  UNL1        0.3406
     33 C           7.7331    4.0000    0.0000 C.ar    1  UNL1        0.1628
     34 C           8.5991    3.5000    0.0000 C.ar    1  UNL1       -0.0023
     35 C           6.0010   -4.0000    0.0000 C.2     1  UNL1        0.3406
     36 C           9.4651    2.0000    0.0000 C.2     1  UNL1        0.3370
     37 H           4.5981   -0.8100    0.0000 H       1  UNL1        0.0665
     38 H           4.2690   -4.6200    0.0000 H       1  UNL1        0.0665
     39 H           7.7331    1.3800    0.0000 H       1  UNL1        0.0664
     40 H           9.1360    3.8100    0.0000 H       1  UNL1        0.0663
     41 H           8.2700    0.6900    0.0000 H       1  UNL1        0.2924
     42 H           7.7331   -1.6200    0.0000 H       1  UNL1        0.2924
     43 H           3.7320   -0.6900    0.0000 H       1  UNL1        0.2924
     44 H           2.0000   -2.3100    0.0000 H       1  UNL1        0.2924
     45 H           6.0010    4.6200    0.0000 H       1  UNL1        0.2924
     46 H           2.5369   -4.6200    0.0000 H       1  UNL1        0.2923
     47 H           8.2700    5.3100    0.0000 H       1  UNL1        0.2923
     48 H           2.8660    0.8100    0.0000 H       1  UNL1        0.2954
     49 H           5.4641   -5.3100    0.0000 H       1  UNL1        0.2954
     50 H          10.8681    2.1900    0.0000 H       1  UNL1        0.2954
@<TRIPOS>BOND
     1     1    17    1
     2     1    22    1
     3     2    16    1
     4     2    23    1
     5     3    19    1
     6     3    41    1
     7     4    20    1
     8     4    42    1
     9     5    25    1
    10     5    43    1
    11     6    27    1
    12     6    44    1
    13     7    28    1
    14     7    45    1
    15     8    30    1
    16     8    46    1
    17     9    33    1
    18     9    47    1
    19    10    32    1
    20    10    48    1
    21    11    32    2
    22    12    35    1
    23    12    49    1
    24    13    35    2
    25    14    36    1
    26    14    50    1
    27    15    36    2
    28    16    18   ar
    29    16    19   ar
    30    17    20   ar
    31    17    21   ar
    32    18    21   ar
    33    18    32    1
    34    19    20   ar
    35    21    37    1
    36    22    24   ar
    37    22    25   ar
    38    23    28   ar
    39    23    29   ar
    40    24    26   ar
    41    24    35    1
    42    25    27   ar
    43    26    30   ar
    44    26    38    1
    45    27    30   ar
    46    28    33   ar
    47    29    31   ar
    48    29    39    1
    49    31    34   ar
    50    31    36    1
    51    33    34   ar
    52    34    40    1
