@<TRIPOS>MOLECULE
IMPHY000861
 33 38 0 0 0
SMALL
GASTEIGER

@<TRIPOS>ATOM
      1 O           4.6393   -1.8908    0.0000 O.3     1  UNL1       -0.4520
      2 O           3.4583   -1.2090    0.0000 O.3     1  UNL1       -0.4520
      3 O           6.0846   -2.7402    0.0000 O.3     1  UNL1       -0.4526
      4 O           2.0000   -0.3820    0.0000 O.3     1  UNL1       -0.4526
      5 O           5.4284    2.8396    0.0000 O.2     1  UNL1       -0.2850
      6 N           7.1526    1.8365    0.0000 N.ar    1  UNL1       -0.2511
      7 C           5.4284   -0.1604    0.0000 C.ar    1  UNL1        0.0417
      8 C           4.5623    0.3396    0.0000 C.ar    1  UNL1        0.0427
      9 C           6.2944    0.3396    0.0000 C.ar    1  UNL1        0.0229
     10 C           4.5623    1.3396    0.0000 C.ar    1  UNL1        0.0354
     11 C           5.4123   -1.2019    0.0000 C.ar    1  UNL1        0.1747
     12 C           7.2044   -0.1672    0.0000 C.ar    1  UNL1       -0.0100
     13 C           6.2944    1.3396    0.0000 C.ar    1  UNL1        0.1193
     14 C           3.6684   -0.1950    0.0000 C.ar    1  UNL1        0.1747
     15 C           6.3103   -1.7296    0.0000 C.ar    1  UNL1        0.1674
     16 C           5.4284    1.8396    0.0000 C.2     1  UNL1        0.2125
     17 C           7.2124   -1.2088    0.0000 C.ar    1  UNL1       -0.0083
     18 C           2.7623    0.3188    0.0000 C.ar    1  UNL1        0.1669
     19 C           3.6684    1.8743    0.0000 C.ar    1  UNL1       -0.0466
     20 C           2.7623    1.3604    0.0000 C.ar    1  UNL1       -0.0154
     21 C           8.0437    0.3610    0.0000 C.ar    1  UNL1       -0.0357
     22 C           5.0539   -2.8396    0.0000 C.3     1  UNL1        0.2333
     23 C           2.4293   -1.3242    0.0000 C.3     1  UNL1        0.2333
     24 C           8.0181    1.3524    0.0000 C.ar    1  UNL1        0.0290
     25 H           7.7505   -1.5168    0.0000 H       1  UNL1        0.0661
     26 H           3.6756    2.4942    0.0000 H       1  UNL1        0.0626
     27 H           2.2266    1.6725    0.0000 H       1  UNL1        0.0655
     28 H           8.5903    0.0683    0.0000 H       1  UNL1        0.0639
     29 H           4.4629   -3.0268    0.0000 H       1  UNL1        0.1166
     30 H           5.1780   -3.4471    0.0000 H       1  UNL1        0.1166
     31 H           1.8412   -1.5206    0.0000 H       1  UNL1        0.1166
     32 H           2.5627   -1.9297    0.0000 H       1  UNL1        0.1166
     33 H           8.5488    1.6729    0.0000 H       1  UNL1        0.0830
@<TRIPOS>BOND
     1     1    11    1
     2     1    22    1
     3     2    14    1
     4     2    23    1
     5     3    15    1
     6     3    22    1
     7     4    18    1
     8     4    23    1
     9     5    16    2
    10     6    13   ar
    11     6    24   ar
    12     7     8    1
    13     7     9   ar
    14     7    11   ar
    15     8    10   ar
    16     8    14   ar
    17     9    12   ar
    18     9    13   ar
    19    10    16    1
    20    10    19   ar
    21    11    15   ar
    22    12    17   ar
    23    12    21   ar
    24    13    16    1
    25    14    18   ar
    26    15    17   ar
    27    17    25    1
    28    18    20   ar
    29    19    20   ar
    30    19    26    1
    31    20    27    1
    32    21    24   ar
    33    21    28    1
    34    22    29    1
    35    22    30    1
    36    23    31    1
    37    23    32    1
    38    24    33    1
