@<TRIPOS>MOLECULE
IMPHY008716
 113 119 0 0 0
SMALL
GASTEIGER

@<TRIPOS>ATOM
      1 O           3.9782    0.1661    0.0000 O.3     1  UNL1       -0.3377
      2 O           5.2667    2.6612    0.0000 O.3     1  UNL1       -0.3840
      3 O           2.3121   -1.2922    0.0000 O.3     1  UNL1       -0.3615
      4 O           3.7474    2.2691    0.0000 O.3     1  UNL1       -0.4610
      5 O           5.0435    3.3951    0.0000 O.3     1  UNL1       -0.4556
      6 O           3.1677   -3.0928    0.0000 O.3     1  UNL1       -0.4539
      7 O           6.7755    4.3951    0.0000 O.3     1  UNL1       -0.3876
      8 O           9.0254    4.3016    0.0000 O.3     1  UNL1       -0.3869
      9 O           2.1577    1.5816    0.0000 O.2     1  UNL1       -0.2512
     10 O           5.9095    4.8951    0.0000 O.2     1  UNL1       -0.2505
     11 O           4.5737   -4.1042    0.0000 O.2     1  UNL1       -0.2476
     12 O           2.4108   -5.6280    0.0000 O.3     1  UNL1       -0.3777
     13 N           9.4416    1.8743    0.0000 N.3     1  UNL1       -0.2961
     14 C           5.5776    0.3203    0.0000 C.3     1  UNL1        0.0880
     15 C           4.9827   -0.5272    0.0000 C.3     1  UNL1        0.0056
     16 C           5.1725    1.2281    0.0000 C.3     1  UNL1        0.0584
     17 C           5.9095    1.8951    0.0000 C.3     1  UNL1        0.1172
     18 C           6.7755    1.3951    0.0000 C.3     1  UNL1       -0.0010
     19 C           3.9520   -0.4278    0.0000 C.3     1  UNL1        0.0280
     20 C           6.5663    0.4233    0.0000 C.3     1  UNL1       -0.0167
     21 C           3.3121   -1.2961    0.0000 C.3     1  UNL1        0.2092
     22 C           4.1444    1.3513    0.0000 C.3     1  UNL1        0.1117
     23 C           7.6415    1.8951    0.0000 C.3     1  UNL1       -0.0146
     24 C           3.5300    0.5177    0.0000 C.3     1  UNL1       -0.0068
     25 C           5.4449   -1.5018    0.0000 C.3     1  UNL1       -0.0410
     26 C           5.9095    2.8951    0.0000 C.3     1  UNL1        0.1583
     27 C           7.6415    2.8951    0.0000 C.3     1  UNL1        0.0230
     28 C           3.7516   -2.2810    0.0000 C.3     1  UNL1        0.1568
     29 C           6.7755    3.3951    0.0000 C.3     1  UNL1        0.1006
     30 C           5.9781   -0.6232    0.0000 C.3     1  UNL1       -0.0565
     31 C           4.8252   -2.3845    0.0000 C.3     1  UNL1       -0.0099
     32 C           8.5355    3.4298    0.0000 C.3     1  UNL1        0.0843
     33 C           8.5355    1.3605    0.0000 C.3     1  UNL1        0.0029
     34 C           9.4416    2.9160    0.0000 C.3     1  UNL1        0.0393
     35 C           8.0255    4.2900    0.0000 C.3     1  UNL1       -0.0342
     36 C          10.3727    3.4729    0.0000 C.3     1  UNL1       -0.0344
     37 C          10.3727    1.3174    0.0000 C.3     1  UNL1        0.0019
     38 C          11.3165    1.8526    0.0000 C.3     1  UNL1       -0.0310
     39 C          11.3165    2.9376    0.0000 C.3     1  UNL1       -0.0478
     40 C           2.7541    2.3843    0.0000 C.2     1  UNL1        0.3042
     41 C           5.0435    4.3951    0.0000 C.2     1  UNL1        0.3104
     42 C           3.5787   -4.0044    0.0000 C.2     1  UNL1        0.3393
     43 C          12.1806    1.3493    0.0000 C.3     1  UNL1       -0.0613
     44 C           4.1774    4.8951    0.0000 C.3     1  UNL1        0.0534
     45 C           2.3571    3.3021    0.0000 C.3     1  UNL1        0.0332
     46 C           2.9947   -4.8162    0.0000 C.3     1  UNL1        0.1590
     47 C           4.1774    5.8951    0.0000 C.3     1  UNL1       -0.0432
     48 C           3.3114    4.3951    0.0000 C.3     1  UNL1       -0.0523
     49 C           3.8065   -5.4001    0.0000 C.3     1  UNL1       -0.0166
     50 C           2.1830   -4.2322    0.0000 C.3     1  UNL1       -0.0256
     51 C           3.3114    6.3951    0.0000 C.3     1  UNL1       -0.0645
     52 C           3.7067   -6.3951    0.0000 C.3     1  UNL1       -0.0622
     53 H           4.8261    2.0043    0.0000 H       1  UNL1        0.0394
     54 H           7.4625    0.8946    0.0000 H       1  UNL1        0.0334
     55 H           3.1059   -0.3462    0.0000 H       1  UNL1        0.0361
     56 H           6.5654   -0.1967    0.0000 H       1  UNL1        0.0297
     57 H           7.1828    0.3573    0.0000 H       1  UNL1        0.0297
     58 H           3.5284    1.4215    0.0000 H       1  UNL1        0.0738
     59 H           7.6350    1.0452    0.0000 H       1  UNL1        0.0321
     60 H           3.1012    0.9656    0.0000 H       1  UNL1        0.0305
     61 H           3.0154    0.1719    0.0000 H       1  UNL1        0.0305
     62 H           5.8839   -1.9395    0.0000 H       1  UNL1        0.0273
     63 H           5.9513   -1.1441    0.0000 H       1  UNL1        0.0273
     64 H           5.9095    3.5151    0.0000 H       1  UNL1        0.0790
     65 H           7.6350    3.7451    0.0000 H       1  UNL1        0.0358
     66 H           4.0076   -2.8457    0.0000 H       1  UNL1        0.0788
     67 H           6.2386    3.7051    0.0000 H       1  UNL1        0.0635
     68 H           5.9185   -1.2404    0.0000 H       1  UNL1        0.0236
     69 H           6.5952   -0.6828    0.0000 H       1  UNL1        0.0236
     70 H           6.0376   -0.0061    0.0000 H       1  UNL1        0.0236
     71 H           4.6610   -2.9824    0.0000 H       1  UNL1        0.0303
     72 H           5.3861   -2.6487    0.0000 H       1  UNL1        0.0303
     73 H           8.1309    0.8907    0.0000 H       1  UNL1        0.0430
     74 H           8.9291    0.8815    0.0000 H       1  UNL1        0.0430
     75 H           4.6561    2.5535    0.0000 H       1  UNL1        0.2103
     76 H           9.4317    3.7659    0.0000 H       1  UNL1        0.0491
     77 H           2.0000   -1.8279    0.0000 H       1  UNL1        0.2129
     78 H           8.5588    4.6062    0.0000 H       1  UNL1        0.0258
     79 H           7.7093    4.8233    0.0000 H       1  UNL1        0.0258
     80 H           7.4922    3.9738    0.0000 H       1  UNL1        0.0258
     81 H          10.7663    3.9519    0.0000 H       1  UNL1        0.0281
     82 H           9.9681    3.9427    0.0000 H       1  UNL1        0.0281
     83 H           9.9681    0.8476    0.0000 H       1  UNL1        0.0429
     84 H          10.7663    0.8384    0.0000 H       1  UNL1        0.0429
     85 H           7.3124    4.7051    0.0000 H       1  UNL1        0.2100
     86 H           8.7093    4.8349    0.0000 H       1  UNL1        0.2102
     87 H          11.3129    1.2327    0.0000 H       1  UNL1        0.0310
     88 H          11.9274    2.8316    0.0000 H       1  UNL1        0.0269
     89 H          11.5256    3.5213    0.0000 H       1  UNL1        0.0269
     90 H          11.8685    0.8136    0.0000 H       1  UNL1        0.0233
     91 H          12.7163    1.0372    0.0000 H       1  UNL1        0.0233
     92 H          12.4927    1.8850    0.0000 H       1  UNL1        0.0233
     93 H           4.1774    4.2751    0.0000 H       1  UNL1        0.0410
     94 H           2.9262    3.5482    0.0000 H       1  UNL1        0.0342
     95 H           2.1110    3.8712    0.0000 H       1  UNL1        0.0342
     96 H           1.7881    3.0560    0.0000 H       1  UNL1        0.0342
     97 H           4.7880    5.7875    0.0000 H       1  UNL1        0.0270
     98 H           4.3895    6.4778    0.0000 H       1  UNL1        0.0270
     99 H           3.0014    4.9321    0.0000 H       1  UNL1        0.0238
    100 H           2.7745    4.0851    0.0000 H       1  UNL1        0.0238
    101 H           3.6214    3.8582    0.0000 H       1  UNL1        0.0238
    102 H           4.4033   -5.5682    0.0000 H       1  UNL1        0.0296
    103 H           4.0757   -4.8416    0.0000 H       1  UNL1        0.0296
    104 H           2.5450   -3.7289    0.0000 H       1  UNL1        0.0263
    105 H           1.6797   -3.8702    0.0000 H       1  UNL1        0.0263
    106 H           1.8209   -4.7355    0.0000 H       1  UNL1        0.0263
    107 H           2.6656   -6.1932    0.0000 H       1  UNL1        0.2109
    108 H           3.6214    6.9321    0.0000 H       1  UNL1        0.0230
    109 H           2.7745    6.7051    0.0000 H       1  UNL1        0.0230
    110 H           3.0014    5.8582    0.0000 H       1  UNL1        0.0230
    111 H           3.0898   -6.3332    0.0000 H       1  UNL1        0.0231
    112 H           3.6448   -7.0120    0.0000 H       1  UNL1        0.0231
    113 H           4.3236   -6.4570    0.0000 H       1  UNL1        0.0231
@<TRIPOS>BOND
     1     1    14    1
     2     1    21    1
     3    17     2    1
     4     2    75    1
     5    21     3    1
     6     3    77    1
     7    22     4    1
     8     4    40    1
     9    26     5    1
    10     5    41    1
    11    28     6    1
    12     6    42    1
    13    29     7    1
    14     7    85    1
    15    32     8    1
    16     8    86    1
    17     9    40    2
    18    10    41    2
    19    11    42    2
    20    46    12    1
    21    12   107    1
    22    13    33    1
    23    13    34    1
    24    13    37    1
    25    14    15    1
    26    14    16    1
    27    14    20    1
    28    15    19    1
    29    15    25    1
    30    15    30    1
    31    16    17    1
    32    16    22    1
    33    16    53    1
    34    17    18    1
    35    17    26    1
    36    18    20    1
    37    18    23    1
    38    18    54    1
    39    19    21    1
    40    19    24    1
    41    19    55    1
    42    20    56    1
    43    20    57    1
    44    21    28    1
    45    22    24    1
    46    22    58    1
    47    23    27    1
    48    23    33    1
    49    23    59    1
    50    24    60    1
    51    24    61    1
    52    25    31    1
    53    25    62    1
    54    25    63    1
    55    26    29    1
    56    26    64    1
    57    27    29    1
    58    27    32    1
    59    27    65    1
    60    28    31    1
    61    28    66    1
    62    29    67    1
    63    30    68    1
    64    30    69    1
    65    30    70    1
    66    31    71    1
    67    31    72    1
    68    32    34    1
    69    32    35    1
    70    33    73    1
    71    33    74    1
    72    34    36    1
    73    34    76    1
    74    35    78    1
    75    35    79    1
    76    35    80    1
    77    36    39    1
    78    36    81    1
    79    36    82    1
    80    37    38    1
    81    37    83    1
    82    37    84    1
    83    38    39    1
    84    38    43    1
    85    38    87    1
    86    39    88    1
    87    39    89    1
    88    40    45    1
    89    41    44    1
    90    42    46    1
    91    43    90    1
    92    43    91    1
    93    43    92    1
    94    44    47    1
    95    44    48    1
    96    44    93    1
    97    45    94    1
    98    45    95    1
    99    45    96    1
   100    46    49    1
   101    46    50    1
   102    47    51    1
   103    47    97    1
   104    47    98    1
   105    48    99    1
   106    48   100    1
   107    48   101    1
   108    49    52    1
   109    49   102    1
   110    49   103    1
   111    50   104    1
   112    50   105    1
   113    50   106    1
   114    51   108    1
   115    51   109    1
   116    51   110    1
   117    52   111    1
   118    52   112    1
   119    52   113    1
