@<TRIPOS>MOLECULE
IMPHY007274
 24 26 0 0 0
SMALL
GASTEIGER

@<TRIPOS>ATOM
      1 O           6.3981   -1.2846    0.0000 O.2     1  UNL1       -0.2832
      2 O           4.6660   -2.2846    0.0000 O.2     1  UNL1       -0.2832
      3 C           3.8000    0.2154    0.0000 C.ar    1  UNL1       -0.0063
      4 C           4.6660    0.7154    0.0000 C.ar    1  UNL1       -0.0063
      5 C           3.8000   -0.7846    0.0000 C.ar    1  UNL1        0.0333
      6 C           5.5321    0.2154    0.0000 C.ar    1  UNL1        0.0333
      7 C           4.6660   -1.2846    0.0000 C.2     1  UNL1        0.2335
      8 C           5.5321   -0.7846    0.0000 C.2     1  UNL1        0.2335
      9 C           2.9061    0.7500    0.0000 C.ar    1  UNL1       -0.0533
     10 C           4.6500    1.7569    0.0000 C.ar    1  UNL1       -0.0533
     11 C           2.9061   -1.3193    0.0000 C.ar    1  UNL1       -0.0502
     12 C           6.4421    0.7222    0.0000 C.ar    1  UNL1       -0.0502
     13 C           5.5480    2.2846    0.0000 C.ar    1  UNL1       -0.0611
     14 C           2.0000    0.2362    0.0000 C.ar    1  UNL1       -0.0611
     15 C           2.0000   -0.8054    0.0000 C.ar    1  UNL1       -0.0610
     16 C           6.4501    1.7638    0.0000 C.ar    1  UNL1       -0.0610
     17 H           2.9132    1.3700    0.0000 H       1  UNL1        0.0624
     18 H           4.1095    2.0606    0.0000 H       1  UNL1        0.0624
     19 H           2.9132   -1.9392    0.0000 H       1  UNL1        0.0625
     20 H           6.9754    0.4060    0.0000 H       1  UNL1        0.0625
     21 H           1.4643    0.5483    0.0000 H       1  UNL1        0.0618
     22 H           5.5456    2.9046    0.0000 H       1  UNL1        0.0618
     23 H           1.4643   -1.1175    0.0000 H       1  UNL1        0.0618
     24 H           6.9882    2.0717    0.0000 H       1  UNL1        0.0618
@<TRIPOS>BOND
     1     1     8    2
     2     2     7    2
     3     3     4    1
     4     3     5   ar
     5     3     9   ar
     6     4     6   ar
     7     4    10   ar
     8     5     7    1
     9     5    11   ar
    10     6     8    1
    11     6    12   ar
    12     7     8    1
    13     9    14   ar
    14     9    17    1
    15    10    13   ar
    16    10    18    1
    17    11    15   ar
    18    11    19    1
    19    12    16   ar
    20    12    20    1
    21    13    16   ar
    22    13    22    1
    23    14    15   ar
    24    14    21    1
    25    15    23    1
    26    16    24    1
