@<TRIPOS>MOLECULE
IMPHY013751
 22 22 0 0 0
SMALL
GASTEIGER

@<TRIPOS>ATOM
      1 O           3.7320    1.4400    0.0000 O.3     1  UNL1       -0.3947
      2 C           2.8660   -0.0600    0.0000 C.3     1  UNL1       -0.0178
      3 C           2.0000   -0.5600    0.0000 C.3     1  UNL1       -0.0481
      4 C           3.7320   -0.5600    0.0000 C.3     1  UNL1       -0.0481
      5 C           2.0000   -1.5600    0.0000 C.3     1  UNL1       -0.0527
      6 C           3.7320   -1.5600    0.0000 C.3     1  UNL1       -0.0527
      7 C           2.8660   -2.0600    0.0000 C.3     1  UNL1       -0.0530
      8 C           2.8660    0.9400    0.0000 C.3     1  UNL1        0.0470
      9 H           3.4030    0.2500    0.0000 H       1  UNL1        0.0323
     10 H           1.7880    0.0226    0.0000 H       1  UNL1        0.0269
     11 H           1.3894   -0.6677    0.0000 H       1  UNL1        0.0269
     12 H           4.3426   -0.6677    0.0000 H       1  UNL1        0.0269
     13 H           3.9441    0.0226    0.0000 H       1  UNL1        0.0269
     14 H           1.3894   -1.4523    0.0000 H       1  UNL1        0.0265
     15 H           1.7880   -2.1426    0.0000 H       1  UNL1        0.0265
     16 H           3.9441   -2.1426    0.0000 H       1  UNL1        0.0265
     17 H           4.3426   -1.4523    0.0000 H       1  UNL1        0.0265
     18 H           2.4675   -2.5349    0.0000 H       1  UNL1        0.0265
     19 H           3.2646   -2.5349    0.0000 H       1  UNL1        0.0265
     20 H           2.6540    1.5226    0.0000 H       1  UNL1        0.0560
     21 H           2.2554    0.8323    0.0000 H       1  UNL1        0.0560
     22 H           3.7320    2.0600    0.0000 H       1  UNL1        0.2094
@<TRIPOS>BOND
     1     1     8    1
     2     1    22    1
     3     2     3    1
     4     2     4    1
     5     2     8    1
     6     2     9    1
     7     3     5    1
     8     3    10    1
     9     3    11    1
    10     4     6    1
    11     4    12    1
    12     4    13    1
    13     5     7    1
    14     5    14    1
    15     5    15    1
    16     6     7    1
    17     6    16    1
    18     6    17    1
    19     7    18    1
    20     7    19    1
    21     8    20    1
    22     8    21    1
