@<TRIPOS>MOLECULE
IMPHY006272
 19 19 0 0 0
SMALL
GASTEIGER

@<TRIPOS>ATOM
      1 C           2.8660   -0.6550    0.0000 C.ar    1  UNL1       -0.0356
      2 C           2.8660    0.3450    0.0000 C.3     1  UNL1        0.0352
      3 C           2.0000   -1.1550    0.0000 C.ar    1  UNL1       -0.0577
      4 C           3.7320   -1.1550    0.0000 C.ar    1  UNL1       -0.0577
      5 C           2.0000   -2.1550    0.0000 C.ar    1  UNL1       -0.0615
      6 C           3.7320   -2.1550    0.0000 C.ar    1  UNL1       -0.0615
      7 C           2.8660   -2.6550    0.0000 C.ar    1  UNL1       -0.0617
      8 C           3.7320    0.8450    0.0000 C.1     1  UNL1       -0.0838
      9 C           4.5981    1.3450    0.0000 C.1     1  UNL1       -0.0148
     10 C           5.4641    1.8450    0.0000 C.1     1  UNL1       -0.0182
     11 C           6.3301    2.3450    0.0000 C.1     1  UNL1       -0.1053
     12 H           2.6540    0.9276    0.0000 H       1  UNL1        0.0446
     13 H           2.2554    0.2373    0.0000 H       1  UNL1        0.0446
     14 H           1.4631   -0.8450    0.0000 H       1  UNL1        0.0621
     15 H           4.2690   -0.8450    0.0000 H       1  UNL1        0.0621
     16 H           1.4631   -2.4650    0.0000 H       1  UNL1        0.0618
     17 H           4.2690   -2.4650    0.0000 H       1  UNL1        0.0618
     18 H           2.8660   -3.2750    0.0000 H       1  UNL1        0.0618
     19 H           6.8671    2.6550    0.0000 H       1  UNL1        0.1238
@<TRIPOS>BOND
     1     1     2    1
     2     1     3   ar
     3     1     4   ar
     4     2     8    1
     5     2    12    1
     6     2    13    1
     7     3     5   ar
     8     3    14    1
     9     4     6   ar
    10     4    15    1
    11     5     7   ar
    12     5    16    1
    13     6     7   ar
    14     6    17    1
    15     7    18    1
    16     8     9    3
    17     9    10    1
    18    10    11    3
    19    11    19    1
