@<TRIPOS>MOLECULE
IMPHY002436
 78 82 0 0 0
SMALL
GASTEIGER

@<TRIPOS>ATOM
      1 O           8.2709   -2.8906    0.0000 O.3     1  UNL1       -0.3851
      2 O           7.7056   -3.2170    0.0000 O.3     1  UNL1       -0.3854
      3 O           8.5677    0.3054    0.0000 O.3     1  UNL1       -0.3854
      4 O          10.5979   -0.4681    0.0000 O.3     1  UNL1       -0.3892
      5 O           2.5357   -4.0033    0.0000 O.3     1  UNL1       -0.3918
      6 O           7.9288    1.0491    0.0000 O.2     1  UNL1       -0.2924
      7 C           7.9288   -1.9509    0.0000 C.3     1  UNL1        0.1036
      8 C           7.9288   -0.9509    0.0000 C.3     1  UNL1        0.0403
      9 C           7.0628   -2.4509    0.0000 C.3     1  UNL1        0.0985
     10 C           6.1968   -1.9509    0.0000 C.3     1  UNL1       -0.0031
     11 C           5.2868   -2.4578    0.0000 C.3     1  UNL1       -0.0235
     12 C           7.0628   -0.4509    0.0000 C.3     1  UNL1        0.0327
     13 C           8.8750   -0.6462    0.0000 C.3     1  UNL1        0.1003
     14 C           6.1968   -0.9509    0.0000 C.3     1  UNL1       -0.0364
     15 C           5.2787   -3.4994    0.0000 C.3     1  UNL1       -0.0329
     16 C           8.8750   -2.2556    0.0000 C.3     1  UNL1       -0.0179
     17 C           7.0789   -3.4924    0.0000 C.3     1  UNL1       -0.0207
     18 C           9.4586   -1.4509    0.0000 C.3     1  UNL1       -0.0182
     19 C           6.1808   -4.0202    0.0000 C.3     1  UNL1       -0.0469
     20 C           4.3599   -1.8937    0.0000 C.3     1  UNL1       -0.0447
     21 C           7.9288    0.0491    0.0000 C.3     1  UNL1       -0.0535
     22 C           4.3433   -4.0491    0.0000 C.3     1  UNL1       -0.0235
     23 C           9.6851   -0.0598    0.0000 C.3     1  UNL1        0.0817
     24 C           5.2945   -1.4578    0.0000 C.3     1  UNL1       -0.0590
     25 C           3.4120   -2.4216    0.0000 C.3     1  UNL1       -0.0263
     26 C           3.4037   -3.5066    0.0000 C.3     1  UNL1        0.0555
     27 C           7.0628    0.5491    0.0000 C.2     1  UNL1        0.1599
     28 C           9.5823    0.9349    0.0000 C.3     1  UNL1       -0.0362
     29 C           6.1968    1.0491    0.0000 C.2     1  UNL1       -0.0184
     30 C           6.1968    2.0491    0.0000 C.2     1  UNL1       -0.0513
     31 C           5.3307    2.5491    0.0000 C.ar    1  UNL1       -0.0249
     32 C           5.3307    3.5491    0.0000 C.ar    1  UNL1       -0.0546
     33 C           4.4647    2.0491    0.0000 C.ar    1  UNL1       -0.0546
     34 C           4.4647    4.0491    0.0000 C.ar    1  UNL1       -0.0612
     35 C           3.5987    2.5491    0.0000 C.ar    1  UNL1       -0.0612
     36 C           3.5987    3.5491    0.0000 C.ar    1  UNL1       -0.0617
     37 H           6.9329   -1.5259    0.0000 H       1  UNL1        0.0335
     38 H           6.5259   -0.1409    0.0000 H       1  UNL1        0.0388
     39 H           5.9847   -0.3683    0.0000 H       1  UNL1        0.0276
     40 H           5.5862   -1.0586    0.0000 H       1  UNL1        0.0276
     41 H           5.2820   -4.3494    0.0000 H       1  UNL1        0.0307
     42 H           8.6240   -2.8226    0.0000 H       1  UNL1        0.0295
     43 H           9.4124   -2.5649    0.0000 H       1  UNL1        0.0295
     44 H           7.2969   -4.0728    0.0000 H       1  UNL1        0.0294
     45 H           7.6880   -3.3769    0.0000 H       1  UNL1        0.0294
     46 H           9.9195   -1.8656    0.0000 H       1  UNL1        0.0295
     47 H           9.9195   -1.0362    0.0000 H       1  UNL1        0.0295
     48 H           5.7835   -4.4962    0.0000 H       1  UNL1        0.0269
     49 H           6.5818   -4.4931    0.0000 H       1  UNL1        0.0269
     50 H           4.7681   -1.4270    0.0000 H       1  UNL1        0.0271
     51 H           3.9700   -1.4116    0.0000 H       1  UNL1        0.0271
     52 H           8.5488    0.0491    0.0000 H       1  UNL1        0.0237
     53 H           7.9288    0.6691    0.0000 H       1  UNL1        0.0237
     54 H           7.3088    0.0491    0.0000 H       1  UNL1        0.0237
     55 H           3.9460   -4.5250    0.0000 H       1  UNL1        0.0293
     56 H           4.7443   -4.5220    0.0000 H       1  UNL1        0.0293
     57 H          10.1873    0.3038    0.0000 H       1  UNL1        0.0619
     58 H           5.9145   -1.4626    0.0000 H       1  UNL1        0.0235
     59 H           5.2993   -0.8378    0.0000 H       1  UNL1        0.0235
     60 H           4.6745   -1.4530    0.0000 H       1  UNL1        0.0235
     61 H           8.8814   -2.9983    0.0000 H       1  UNL1        0.2103
     62 H           7.8133   -3.8275    0.0000 H       1  UNL1        0.2103
     63 H           3.2075   -1.8363    0.0000 H       1  UNL1        0.0290
     64 H           2.8004   -2.5230    0.0000 H       1  UNL1        0.0290
     65 H           3.4025   -4.1266    0.0000 H       1  UNL1        0.0593
     66 H           8.9833    0.7654    0.0000 H       1  UNL1        0.2103
     67 H          10.1990    0.9986    0.0000 H       1  UNL1        0.0255
     68 H           9.5185    1.5516    0.0000 H       1  UNL1        0.0255
     69 H           8.9656    0.8712    0.0000 H       1  UNL1        0.0255
     70 H          11.1001   -0.1046    0.0000 H       1  UNL1        0.2099
     71 H           5.6598    0.7391    0.0000 H       1  UNL1        0.0653
     72 H           2.0000   -3.6912    0.0000 H       1  UNL1        0.2098
     73 H           6.7337    2.3591    0.0000 H       1  UNL1        0.0624
     74 H           5.8677    3.8591    0.0000 H       1  UNL1        0.0623
     75 H           4.4647    1.4291    0.0000 H       1  UNL1        0.0623
     76 H           4.4647    4.6691    0.0000 H       1  UNL1        0.0618
     77 H           3.0618    2.2391    0.0000 H       1  UNL1        0.0618
     78 H           3.0618    3.8591    0.0000 H       1  UNL1        0.0618
@<TRIPOS>BOND
     1     7     1    1
     2     1    61    1
     3     9     2    1
     4     2    62    1
     5    13     3    1
     6     3    66    1
     7    23     4    1
     8     4    70    1
     9    26     5    1
    10     5    72    1
    11     6    27    2
    12     7     8    1
    13     7     9    1
    14     7    16    1
    15     8    12    1
    16     8    13    1
    17     8    21    1
    18     9    10    1
    19     9    17    1
    20    10    11    1
    21    10    14    1
    22    10    37    1
    23    11    15    1
    24    11    20    1
    25    11    24    1
    26    12    14    1
    27    12    27    1
    28    12    38    1
    29    13    18    1
    30    13    23    1
    31    14    39    1
    32    14    40    1
    33    15    19    1
    34    15    22    1
    35    15    41    1
    36    16    18    1
    37    16    42    1
    38    16    43    1
    39    17    19    1
    40    17    44    1
    41    17    45    1
    42    18    46    1
    43    18    47    1
    44    19    48    1
    45    19    49    1
    46    20    25    1
    47    20    50    1
    48    20    51    1
    49    21    52    1
    50    21    53    1
    51    21    54    1
    52    22    26    1
    53    22    55    1
    54    22    56    1
    55    23    28    1
    56    23    57    1
    57    24    58    1
    58    24    59    1
    59    24    60    1
    60    25    26    1
    61    25    63    1
    62    25    64    1
    63    26    65    1
    64    27    29    1
    65    28    67    1
    66    28    68    1
    67    28    69    1
    68    29    30    2
    69    29    71    1
    70    30    31    1
    71    30    73    1
    72    31    32   ar
    73    31    33   ar
    74    32    34   ar
    75    32    74    1
    76    33    35   ar
    77    33    75    1
    78    34    36   ar
    79    34    76    1
    80    35    36   ar
    81    35    77    1
    82    36    78    1
