@<TRIPOS>MOLECULE
IMPHY015260
 24 24 0 0 0
SMALL
GASTEIGER

@<TRIPOS>ATOM
      1 C           3.7320    0.2500    0.0000 C.ar    1  UNL1       -0.0445
      2 C           2.8660   -0.2500    0.0000 C.ar    1  UNL1       -0.0473
      3 C           3.7320    1.2500    0.0000 C.3     1  UNL1       -0.0303
      4 C           4.5981   -0.2500    0.0000 C.ar    1  UNL1       -0.0554
      5 C           4.5981   -1.2500    0.0000 C.ar    1  UNL1       -0.0502
      6 C           2.8660   -1.2500    0.0000 C.ar    1  UNL1       -0.0583
      7 C           3.7320   -1.7500    0.0000 C.ar    1  UNL1       -0.0586
      8 C           2.0000    0.2500    0.0000 C.3     1  UNL1       -0.0395
      9 C           4.5981    1.7500    0.0000 C.3     1  UNL1       -0.0613
     10 C           5.4641   -1.7500    0.0000 C.3     1  UNL1       -0.0397
     11 H           3.5200    1.8326    0.0000 H       1  UNL1        0.0311
     12 H           3.1215    1.1423    0.0000 H       1  UNL1        0.0311
     13 H           5.1350    0.0600    0.0000 H       1  UNL1        0.0623
     14 H           2.3291   -1.5600    0.0000 H       1  UNL1        0.0620
     15 H           3.7320   -2.3700    0.0000 H       1  UNL1        0.0620
     16 H           4.9081    1.2131    0.0000 H       1  UNL1        0.0233
     17 H           5.1350    2.0600    0.0000 H       1  UNL1        0.0233
     18 H           4.2881    2.2869    0.0000 H       1  UNL1        0.0233
     19 H           2.3100    0.7869    0.0000 H       1  UNL1        0.0278
     20 H           1.4631    0.5600    0.0000 H       1  UNL1        0.0278
     21 H           1.6900   -0.2869    0.0000 H       1  UNL1        0.0278
     22 H           5.1541   -2.2869    0.0000 H       1  UNL1        0.0278
     23 H           6.0010   -2.0600    0.0000 H       1  UNL1        0.0278
     24 H           5.7741   -1.2131    0.0000 H       1  UNL1        0.0278
@<TRIPOS>BOND
     1     1     2   ar
     2     1     3    1
     3     1     4   ar
     4     2     6   ar
     5     2     8    1
     6     3     9    1
     7     3    11    1
     8     3    12    1
     9     4     5   ar
    10     4    13    1
    11     5     7   ar
    12     5    10    1
    13     6     7   ar
    14     6    14    1
    15     7    15    1
    16     8    19    1
    17     8    20    1
    18     8    21    1
    19     9    16    1
    20     9    17    1
    21     9    18    1
    22    10    22    1
    23    10    23    1
    24    10    24    1
