@<TRIPOS>MOLECULE
IMPHY006013
 26 26 0 0 0
SMALL
GASTEIGER

@<TRIPOS>ATOM
      1 O           2.8660   -2.1550    0.0000 O.3     1  UNL1       -0.4914
      2 O           3.7320    1.3450    0.0000 O.2     1  UNL1       -0.2920
      3 O           6.3301    2.8450    0.0000 O.3     1  UNL1       -0.3946
      4 O           4.5981   -3.1550    0.0000 O.3     1  UNL1       -0.5033
      5 C           4.5981   -0.1550    0.0000 C.ar    1  UNL1        0.0212
      6 C           5.4641    1.3450    0.0000 C.3     1  UNL1        0.0336
      7 C           4.5981    0.8450    0.0000 C.2     1  UNL1        0.1654
      8 C           3.7320   -0.6550    0.0000 C.ar    1  UNL1       -0.0058
      9 C           5.4641   -0.6550    0.0000 C.ar    1  UNL1       -0.0476
     10 C           3.7320   -1.6550    0.0000 C.ar    1  UNL1        0.1619
     11 C           5.4641    2.3450    0.0000 C.3     1  UNL1        0.0512
     12 C           4.5981   -2.1550    0.0000 C.ar    1  UNL1        0.1585
     13 C           5.4641   -1.6550    0.0000 C.ar    1  UNL1       -0.0159
     14 C           2.0000   -1.6550    0.0000 C.3     1  UNL1        0.0790
     15 H           5.6762    0.7624    0.0000 H       1  UNL1        0.0367
     16 H           6.0747    1.4527    0.0000 H       1  UNL1        0.0367
     17 H           3.1951   -0.3450    0.0000 H       1  UNL1        0.0662
     18 H           6.0010   -0.3450    0.0000 H       1  UNL1        0.0626
     19 H           5.2520    2.9276    0.0000 H       1  UNL1        0.0561
     20 H           4.8535    2.2373    0.0000 H       1  UNL1        0.0561
     21 H           6.0010   -1.9650    0.0000 H       1  UNL1        0.0655
     22 H           6.3301    3.4650    0.0000 H       1  UNL1        0.2094
     23 H           2.3100   -1.1181    0.0000 H       1  UNL1        0.0660
     24 H           1.4631   -1.3450    0.0000 H       1  UNL1        0.0660
     25 H           1.6900   -2.1919    0.0000 H       1  UNL1        0.0660
     26 H           5.1350   -3.4650    0.0000 H       1  UNL1        0.2923
@<TRIPOS>BOND
     1     1    10    1
     2     1    14    1
     3     2     7    2
     4     3    11    1
     5     3    22    1
     6     4    12    1
     7     4    26    1
     8     5     7    1
     9     5     8   ar
    10     5     9   ar
    11     6     7    1
    12     6    11    1
    13     6    15    1
    14     6    16    1
    15     8    10   ar
    16     8    17    1
    17     9    13   ar
    18     9    18    1
    19    10    12   ar
    20    11    19    1
    21    11    20    1
    22    12    13   ar
    23    13    21    1
    24    14    23    1
    25    14    24    1
    26    14    25    1
