@<TRIPOS>MOLECULE
IMPHY005219
 51 55 0 0 0
SMALL
GASTEIGER

@<TRIPOS>ATOM
      1 O           5.6259   -1.9770    0.0000 O.3     1  UNL1       -0.3536
      2 O           6.8854    0.4166    0.0000 O.3     1  UNL1       -0.4589
      3 O           2.2287    1.6678    0.0000 O.3     1  UNL1       -0.3918
      4 O           7.4447   -1.1818    0.0000 O.2     1  UNL1       -0.2475
      5 O           5.1743    3.8834    0.0000 O.3     1  UNL1       -0.4677
      6 O           6.5159    2.7879    0.0000 O.2     1  UNL1       -0.2505
      7 O           3.9966   -4.6580    0.0000 O.2     1  UNL1       -0.4707
      8 C           4.8609   -0.5583    0.0000 C.3     1  UNL1        0.0135
      9 C           4.6384    0.4166    0.0000 C.3     1  UNL1       -0.0231
     10 C           5.7619   -0.9922    0.0000 C.3     1  UNL1        0.1751
     11 C           5.2619    1.1984    0.0000 C.3     1  UNL1        0.0127
     12 C           6.2619    1.1984    0.0000 C.3     1  UNL1        0.1102
     13 C           5.6551    0.1845    0.0000 C.3     1  UNL1        0.0248
     14 C           4.1758   -1.2786    0.0000 C.3     1  UNL1       -0.0134
     15 C           3.6062    0.5559    0.0000 C.3     1  UNL1       -0.0230
     16 C           4.8964    2.1738    0.0000 C.3     1  UNL1        0.0652
     17 C           4.6476   -2.1536    0.0000 C.3     1  UNL1        0.0886
     18 C           3.8659   -0.4588    0.0000 C.3     1  UNL1       -0.0560
     19 C           6.6629   -0.5583    0.0000 C.2     1  UNL1        0.3404
     20 C           3.2181    1.5226    0.0000 C.3     1  UNL1        0.0563
     21 C           3.8676    2.3370    0.0000 C.3     1  UNL1       -0.0135
     22 C           5.5288    2.9484    0.0000 C.2     1  UNL1        0.3104
     23 C           4.2138   -3.0546    0.0000 C.ar    1  UNL1        0.0188
     24 C           3.2298   -3.2331    0.0000 C.ar    1  UNL1       -0.0183
     25 C           4.6876   -3.9352    0.0000 C.ar    1  UNL1        0.0973
     26 C           3.0956   -4.2241    0.0000 C.ar    1  UNL1        0.0920
     27 C           5.8068    4.6580    0.0000 C.3     1  UNL1        0.0817
     28 H           3.9131   -0.0267    0.0000 H       1  UNL1        0.0312
     29 H           5.7919    1.8630    0.0000 H       1  UNL1        0.0347
     30 H           6.4511    2.0271    0.0000 H       1  UNL1        0.0738
     31 H           5.2473    0.6516    0.0000 H       1  UNL1        0.0335
     32 H           5.0850   -0.0593    0.0000 H       1  UNL1        0.0335
     33 H           3.7740   -0.8065    0.0000 H       1  UNL1        0.0300
     34 H           3.6641   -1.6286    0.0000 H       1  UNL1        0.0300
     35 H           2.9997    0.4268    0.0000 H       1  UNL1        0.0293
     36 H           3.6296   -0.0636    0.0000 H       1  UNL1        0.0293
     37 H           5.5081    2.0731    0.0000 H       1  UNL1        0.0418
     38 H           5.0230   -2.6471    0.0000 H       1  UNL1        0.0648
     39 H           3.9276    0.1581    0.0000 H       1  UNL1        0.0236
     40 H           3.2490   -0.3970    0.0000 H       1  UNL1        0.0236
     41 H           3.8042   -1.0757    0.0000 H       1  UNL1        0.0236
     42 H           2.8344    1.0356    0.0000 H       1  UNL1        0.0593
     43 H           4.0681    2.9237    0.0000 H       1  UNL1        0.0298
     44 H           3.3238    2.6349    0.0000 H       1  UNL1        0.0298
     45 H           2.0000    2.2441    0.0000 H       1  UNL1        0.2098
     46 H           2.7817   -2.8047    0.0000 H       1  UNL1        0.0652
     47 H           5.3020   -4.0184    0.0000 H       1  UNL1        0.1033
     48 H           2.5496   -4.5179    0.0000 H       1  UNL1        0.1029
     49 H           6.2870    4.2658    0.0000 H       1  UNL1        0.0661
     50 H           6.1989    5.1382    0.0000 H       1  UNL1        0.0661
     51 H           5.3265    5.0501    0.0000 H       1  UNL1        0.0661
@<TRIPOS>BOND
     1    10     1    1
     2     1    17    1
     3     2    12    1
     4     2    19    1
     5    20     3    1
     6     3    45    1
     7     4    19    2
     8     5    22    1
     9     5    27    1
    10     6    22    2
    11     7    25   ar
    12     7    26   ar
    13     8     9    1
    14     8    10    1
    15     8    14    1
    16     8    18    1
    17     9    11    1
    18     9    15    1
    19     9    28    1
    20    10    13    1
    21    10    19    1
    22    11    12    1
    23    11    16    1
    24    11    29    1
    25    12    13    1
    26    12    30    1
    27    13    31    1
    28    13    32    1
    29    14    17    1
    30    14    33    1
    31    14    34    1
    32    15    20    1
    33    15    35    1
    34    15    36    1
    35    16    21    1
    36    16    22    1
    37    16    37    1
    38    17    23    1
    39    17    38    1
    40    18    39    1
    41    18    40    1
    42    18    41    1
    43    20    21    1
    44    20    42    1
    45    21    43    1
    46    21    44    1
    47    23    24   ar
    48    23    25   ar
    49    24    26   ar
    50    24    46    1
    51    25    47    1
    52    26    48    1
    53    27    49    1
    54    27    50    1
    55    27    51    1
