@<TRIPOS>MOLECULE
IMPHY015168
 40 40 0 0 0
SMALL
GASTEIGER

@<TRIPOS>ATOM
      1 O           5.9308    1.9903    0.0000 O.3     1  UNL1       -0.3942
      2 C           5.1980    0.4209    0.0000 C.3     1  UNL1        0.0124
      3 C           4.5981    1.3137    0.0000 C.3     1  UNL1       -0.0236
      4 C           6.0174    0.9941    0.0000 C.3     1  UNL1        0.0533
      5 C           6.1503    0.1159    0.0000 C.3     1  UNL1       -0.0537
      6 C           4.6980   -0.4451    0.0000 C.2     1  UNL1       -0.0793
      7 C           3.7320    0.8137    0.0000 C.2     1  UNL1       -0.0841
      8 C           2.8660    1.3137    0.0000 C.2     1  UNL1       -0.0762
      9 C           2.0000    0.8137    0.0000 C.3     1  UNL1       -0.0286
     10 C           5.1980   -1.3111    0.0000 C.2     1  UNL1       -0.0833
     11 C           2.0000   -0.1863    0.0000 C.3     1  UNL1       -0.0308
     12 C           4.3320   -1.8111    0.0000 C.3     1  UNL1       -0.0138
     13 C           3.3660   -1.5523    0.0000 C.2     1  UNL1       -0.0728
     14 C           2.8660   -0.6863    0.0000 C.2     1  UNL1       -0.0844
     15 C           2.8660    2.3137    0.0000 C.3     1  UNL1       -0.0438
     16 C           2.7573   -2.3457    0.0000 C.3     1  UNL1       -0.0435
     17 H           5.1204    1.6478    0.0000 H       1  UNL1        0.0316
     18 H           4.2760    1.8435    0.0000 H       1  UNL1        0.0316
     19 H           6.2792    0.4320    0.0000 H       1  UNL1        0.0566
     20 H           6.6164    1.1542    0.0000 H       1  UNL1        0.0566
     21 H           5.9612   -0.4745    0.0000 H       1  UNL1        0.0239
     22 H           6.7408   -0.0732    0.0000 H       1  UNL1        0.0239
     23 H           6.3394    0.7064    0.0000 H       1  UNL1        0.0239
     24 H           4.0780   -0.4451    0.0000 H       1  UNL1        0.0575
     25 H           3.7320    0.1937    0.0000 H       1  UNL1        0.0572
     26 H           1.7880    1.3963    0.0000 H       1  UNL1        0.0313
     27 H           1.3894    0.7061    0.0000 H       1  UNL1        0.0313
     28 H           5.7968   -1.4716    0.0000 H       1  UNL1        0.0572
     29 H           1.3894   -0.0786    0.0000 H       1  UNL1        0.0310
     30 H           1.7880   -0.7689    0.0000 H       1  UNL1        0.0310
     31 H           4.0220   -2.3481    0.0000 H       1  UNL1        0.0352
     32 H           4.7704   -2.2495    0.0000 H       1  UNL1        0.0352
     33 H           3.3044   -0.2479    0.0000 H       1  UNL1        0.0572
     34 H           3.4860    2.3137    0.0000 H       1  UNL1        0.0274
     35 H           2.8660    2.9337    0.0000 H       1  UNL1        0.0274
     36 H           2.2460    2.3137    0.0000 H       1  UNL1        0.0274
     37 H           6.4389    2.3457    0.0000 H       1  UNL1        0.2094
     38 H           2.2654   -1.9682    0.0000 H       1  UNL1        0.0274
     39 H           2.3798   -2.8375    0.0000 H       1  UNL1        0.0274
     40 H           3.2491   -2.7231    0.0000 H       1  UNL1        0.0274
@<TRIPOS>BOND
     1     1     4    1
     2     1    37    1
     3     2     3    1
     4     2     4    1
     5     2     5    1
     6     2     6    1
     7     3     7    1
     8     3    17    1
     9     3    18    1
    10     4    19    1
    11     4    20    1
    12     5    21    1
    13     5    22    1
    14     5    23    1
    15     6    10    2
    16     6    24    1
    17     7     8    2
    18     7    25    1
    19     8     9    1
    20     8    15    1
    21     9    11    1
    22     9    26    1
    23     9    27    1
    24    10    12    1
    25    10    28    1
    26    11    14    1
    27    11    29    1
    28    11    30    1
    29    12    13    1
    30    12    31    1
    31    12    32    1
    32    13    14    2
    33    13    16    1
    34    14    33    1
    35    15    34    1
    36    15    35    1
    37    15    36    1
    38    16    38    1
    39    16    39    1
    40    16    40    1
