@<TRIPOS>MOLECULE
IMPHY006660
 40 40 0 0 0
SMALL
GASTEIGER

@<TRIPOS>ATOM
      1 O           5.4641    4.0950    0.0000 O.3     1  UNL1       -0.3907
      2 C           2.8660   -1.4050    0.0000 C.3     1  UNL1       -0.0164
      3 C           2.0000   -1.9050    0.0000 C.3     1  UNL1       -0.0426
      4 C           3.7320   -1.9050    0.0000 C.3     1  UNL1       -0.0280
      5 C           2.0000   -2.9050    0.0000 C.3     1  UNL1       -0.0315
      6 C           2.8660   -0.4050    0.0000 C.2     1  UNL1       -0.0729
      7 C           2.8660   -3.4050    0.0000 C.2     1  UNL1       -0.0765
      8 C           3.7320   -2.9050    0.0000 C.2     1  UNL1       -0.0845
      9 C           3.7320    0.0950    0.0000 C.3     1  UNL1       -0.0283
     10 C           3.7320    1.0950    0.0000 C.3     1  UNL1       -0.0308
     11 C           2.8660   -4.4050    0.0000 C.3     1  UNL1       -0.0438
     12 C           2.0000    0.0950    0.0000 C.2     1  UNL1       -0.0992
     13 C           4.5981    1.5950    0.0000 C.2     1  UNL1       -0.0826
     14 C           4.5981    2.5950    0.0000 C.2     1  UNL1       -0.0515
     15 C           5.4641    3.0950    0.0000 C.3     1  UNL1        0.0650
     16 C           3.7320    3.0950    0.0000 C.3     1  UNL1       -0.0416
     17 H           3.6022   -0.9800    0.0000 H       1  UNL1        0.0349
     18 H           1.7880   -1.3224    0.0000 H       1  UNL1        0.0274
     19 H           1.3894   -2.0127    0.0000 H       1  UNL1        0.0274
     20 H           4.3426   -2.0127    0.0000 H       1  UNL1        0.0313
     21 H           3.9441   -1.3224    0.0000 H       1  UNL1        0.0313
     22 H           1.3894   -2.7973    0.0000 H       1  UNL1        0.0310
     23 H           1.7880   -3.4876    0.0000 H       1  UNL1        0.0310
     24 H           4.2690   -3.2150    0.0000 H       1  UNL1        0.0572
     25 H           3.9441   -0.4876    0.0000 H       1  UNL1        0.0313
     26 H           4.3426    0.2027    0.0000 H       1  UNL1        0.0313
     27 H           3.5200    1.6776    0.0000 H       1  UNL1        0.0310
     28 H           3.1215    0.9873    0.0000 H       1  UNL1        0.0310
     29 H           2.2460   -4.4050    0.0000 H       1  UNL1        0.0274
     30 H           2.8660   -5.0250    0.0000 H       1  UNL1        0.0274
     31 H           3.4860   -4.4050    0.0000 H       1  UNL1        0.0274
     32 H           2.0000    0.7150    0.0000 H       1  UNL1        0.0534
     33 H           1.4631   -0.2150    0.0000 H       1  UNL1        0.0534
     34 H           5.1350    1.2850    0.0000 H       1  UNL1        0.0572
     35 H           5.6762    2.5124    0.0000 H       1  UNL1        0.0604
     36 H           6.0747    3.2027    0.0000 H       1  UNL1        0.0604
     37 H           4.0420    3.6319    0.0000 H       1  UNL1        0.0275
     38 H           3.1951    3.4050    0.0000 H       1  UNL1        0.0275
     39 H           3.4220    2.5581    0.0000 H       1  UNL1        0.0275
     40 H           6.0010    4.4050    0.0000 H       1  UNL1        0.2098
@<TRIPOS>BOND
     1     1    15    1
     2     1    40    1
     3     2     3    1
     4     2     4    1
     5     2     6    1
     6     2    17    1
     7     3     5    1
     8     3    18    1
     9     3    19    1
    10     4     8    1
    11     4    20    1
    12     4    21    1
    13     5     7    1
    14     5    22    1
    15     5    23    1
    16     6     9    1
    17     6    12    2
    18     7     8    2
    19     7    11    1
    20     8    24    1
    21     9    10    1
    22     9    25    1
    23     9    26    1
    24    10    13    1
    25    10    27    1
    26    10    28    1
    27    11    29    1
    28    11    30    1
    29    11    31    1
    30    12    32    1
    31    12    33    1
    32    13    14    2
    33    13    34    1
    34    14    15    1
    35    14    16    1
    36    15    35    1
    37    15    36    1
    38    16    37    1
    39    16    38    1
    40    16    39    1
