@<TRIPOS>MOLECULE
IMPHY007814
 159 167 0 0 0
SMALL
GASTEIGER

@<TRIPOS>ATOM
      1 O           6.8671   -3.6772    0.0000 O.3     1  UNL1       -0.3448
      2 O           8.6424    5.6772    0.0000 O.3     1  UNL1       -0.3373
      3 O           9.3112   -2.9856    0.0000 O.3     1  UNL1       -0.3944
      4 O           5.1350   -3.6772    0.0000 O.3     1  UNL1       -0.3315
      5 O           9.5085    7.1772    0.0000 O.2     1  UNL1       -0.4640
      6 O           6.8671   -5.6772    0.0000 O.3     1  UNL1       -0.3377
      7 O           5.1350   -6.6772    0.0000 O.3     1  UNL1       -0.3864
      8 O           3.4030   -5.6772    0.0000 O.3     1  UNL1       -0.3860
      9 O           6.9104    8.6773    0.0000 O.2     1  UNL1       -0.2885
     10 O           6.0010   -7.1772    0.0000 O.3     1  UNL1       -0.3405
     11 O           8.6424    9.6773    0.0000 O.2     1  UNL1       -0.5012
     12 O           2.5369   -4.1772    0.0000 O.3     1  UNL1       -0.4788
     13 O           3.4030   -2.6772    0.0000 O.2     1  UNL1       -0.2480
     14 O           8.5991   -6.6772    0.0000 O.3     1  UNL1       -0.3378
     15 O           8.5991   -8.6773    0.0000 O.3     1  UNL1       -0.3864
     16 O           6.8671   -9.6773    0.0000 O.3     1  UNL1       -0.3865
     17 O           9.4651   -8.1773    0.0000 O.3     1  UNL1       -0.3431
     18 O           5.1350   -9.6773    0.0000 O.3     1  UNL1       -0.3924
     19 O          10.3312   -5.6772    0.0000 O.3     1  UNL1       -0.3841
     20 O          12.0632   -6.6772    0.0000 O.3     1  UNL1       -0.3864
     21 O          12.0632   -8.6773    0.0000 O.3     1  UNL1       -0.3866
     22 C           7.7681    1.0230    0.0000 C.3     1  UNL1       -0.0194
     23 C           6.9040    0.5196    0.0000 C.3     1  UNL1       -0.0257
     24 C           6.8920   -0.5219    0.0000 C.3     1  UNL1       -0.0249
     25 C           7.7643    2.0230    0.0000 C.3     1  UNL1       -0.0051
     26 C           7.7920   -1.0462    0.0000 C.3     1  UNL1       -0.0255
     27 C           8.6801    0.5196    0.0000 C.3     1  UNL1       -0.0463
     28 C           6.8963    2.5196    0.0000 C.2     1  UNL1       -0.0633
     29 C           7.8046   -2.1311    0.0000 C.3     1  UNL1        0.0206
     30 C           8.6921   -0.5219    0.0000 C.3     1  UNL1       -0.0485
     31 C           6.8762    3.5611    0.0000 C.3     1  UNL1       -0.0111
     32 C           7.7722    4.0923    0.0000 C.3     1  UNL1        0.0009
     33 C           8.6723    2.5333    0.0000 C.3     1  UNL1       -0.0428
     34 C           6.0361    1.0163    0.0000 C.3     1  UNL1       -0.0306
     35 C           5.9421   -1.0462    0.0000 C.3     1  UNL1       -0.0447
     36 C           8.6763    3.5749    0.0000 C.3     1  UNL1       -0.0439
     37 C           8.7522    1.2004    0.0000 C.3     1  UNL1       -0.0585
     38 C           6.8671   -2.6772    0.0000 C.3     1  UNL1        0.0695
     39 C           6.0322    2.0163    0.0000 C.2     1  UNL1       -0.0836
     40 C           6.0279   -0.0186    0.0000 C.3     1  UNL1       -0.0590
     41 C           5.9295   -2.1311    0.0000 C.3     1  UNL1       -0.0254
     42 C           8.7497    1.8531    0.0000 C.3     1  UNL1       -0.0553
     43 C           5.9223    4.0780    0.0000 C.3     1  UNL1       -0.0406
     44 C           7.7764    5.1772    0.0000 C.3     1  UNL1        0.0691
     45 C           5.9014    5.1628    0.0000 C.3     1  UNL1       -0.0320
     46 C           6.8347    5.7161    0.0000 C.3     1  UNL1       -0.0207
     47 C           8.8046   -2.1234    0.0000 C.3     1  UNL1        0.0522
     48 C           8.3113   -2.9933    0.0000 C.3     1  UNL1       -0.0548
     49 C           8.6324    4.6022    0.0000 C.3     1  UNL1       -0.0567
     50 C           5.3881    6.0210    0.0000 C.3     1  UNL1       -0.0597
     51 C           4.9015    5.1474    0.0000 C.3     1  UNL1       -0.0597
     52 C           6.0010   -4.1772    0.0000 C.3     1  UNL1        0.1892
     53 C           8.6424    6.6772    0.0000 C.3     1  UNL1        0.2088
     54 C           6.0010   -5.1772    0.0000 C.3     1  UNL1        0.1407
     55 C           7.7764    7.1772    0.0000 C.3     1  UNL1        0.0762
     56 C           5.1350   -5.6772    0.0000 C.3     1  UNL1        0.1149
     57 C           4.2690   -4.1772    0.0000 C.3     1  UNL1        0.1859
     58 C           4.2690   -5.1772    0.0000 C.3     1  UNL1        0.1202
     59 C           7.7764    8.1773    0.0000 C.2     1  UNL1        0.2063
     60 C           9.5085    8.1773    0.0000 C.2     1  UNL1        0.1427
     61 C           6.8671   -6.6772    0.0000 C.3     1  UNL1        0.1889
     62 C           8.6424    8.6773    0.0000 C.2     1  UNL1        0.1975
     63 C           3.4030   -3.6772    0.0000 C.2     1  UNL1        0.3367
     64 C           7.7331   -7.1772    0.0000 C.3     1  UNL1        0.1406
     65 C          10.3745    8.6773    0.0000 C.3     1  UNL1       -0.0031
     66 C           7.7331   -8.1773    0.0000 C.3     1  UNL1        0.1144
     67 C           6.0010   -8.1773    0.0000 C.3     1  UNL1        0.1130
     68 C           6.8671   -8.6773    0.0000 C.3     1  UNL1        0.1119
     69 C           5.1350   -8.6773    0.0000 C.3     1  UNL1        0.0730
     70 C           9.4651   -7.1772    0.0000 C.3     1  UNL1        0.1884
     71 C          10.3312   -6.6772    0.0000 C.3     1  UNL1        0.1341
     72 C          11.1972   -7.1772    0.0000 C.3     1  UNL1        0.1140
     73 C          10.3312   -8.6773    0.0000 C.3     1  UNL1        0.0873
     74 C          11.1972   -8.1773    0.0000 C.3     1  UNL1        0.1095
     75 C          10.3312   -9.6773    0.0000 C.3     1  UNL1       -0.0361
     76 H           7.6385    0.0918    0.0000 H       1  UNL1        0.0315
     77 H           8.5314   -1.4655    0.0000 H       1  UNL1        0.0313
     78 H           9.2921    0.4206    0.0000 H       1  UNL1        0.0271
     79 H           8.8824    1.1057    0.0000 H       1  UNL1        0.0271
     80 H           8.9079   -1.1032    0.0000 H       1  UNL1        0.0268
     81 H           9.3017   -0.4088    0.0000 H       1  UNL1        0.0268
     82 H           6.1502    3.1192    0.0000 H       1  UNL1        0.0352
     83 H           8.8791    1.9488    0.0000 H       1  UNL1        0.0274
     84 H           9.2836    2.6370    0.0000 H       1  UNL1        0.0274
     85 H           5.4251    1.1216    0.0000 H       1  UNL1        0.0310
     86 H           5.8263    0.4329    0.0000 H       1  UNL1        0.0310
     87 H           5.7398   -0.4601    0.0000 H       1  UNL1        0.0271
     88 H           5.3300   -1.1452    0.0000 H       1  UNL1        0.0271
     89 H           9.2868    3.4665    0.0000 H       1  UNL1        0.0272
     90 H           8.8876    4.1578    0.0000 H       1  UNL1        0.0272
     91 H           8.8623    0.5902    0.0000 H       1  UNL1        0.0235
     92 H           9.3624    1.3104    0.0000 H       1  UNL1        0.0235
     93 H           8.6422    1.8106    0.0000 H       1  UNL1        0.0235
     94 H           7.4046   -2.9862    0.0000 H       1  UNL1        0.0603
     95 H           5.4941    2.3242    0.0000 H       1  UNL1        0.0572
     96 H           6.3400    0.5171    0.0000 H       1  UNL1        0.0235
     97 H           5.4922    0.2935    0.0000 H       1  UNL1        0.0235
     98 H           5.7158   -0.5543    0.0000 H       1  UNL1        0.0235
     99 H           5.3199   -2.0180    0.0000 H       1  UNL1        0.0290
    100 H           5.7137   -2.7124    0.0000 H       1  UNL1        0.0290
    101 H           8.6444    1.2421    0.0000 H       1  UNL1        0.0238
    102 H           9.3607    1.7478    0.0000 H       1  UNL1        0.0238
    103 H           8.8550    2.4641    0.0000 H       1  UNL1        0.0238
    104 H           5.3095    4.1723    0.0000 H       1  UNL1        0.0276
    105 H           5.7246    3.4904    0.0000 H       1  UNL1        0.0276
    106 H           7.7752    5.7972    0.0000 H       1  UNL1        0.0603
    107 H           7.2302    6.1936    0.0000 H       1  UNL1        0.0295
    108 H           6.4319    6.1875    0.0000 H       1  UNL1        0.0295
    109 H           9.3855   -1.9069    0.0000 H       1  UNL1        0.0563
    110 H           8.6922   -1.5137    0.0000 H       1  UNL1        0.0563
    111 H           7.7767   -3.3074    0.0000 H       1  UNL1        0.0237
    112 H           8.6254   -3.5278    0.0000 H       1  UNL1        0.0237
    113 H           8.8458   -2.6792    0.0000 H       1  UNL1        0.0237
    114 H           8.9486    4.0689    0.0000 H       1  UNL1        0.0236
    115 H           9.1657    4.9184    0.0000 H       1  UNL1        0.0236
    116 H           8.3162    5.1356    0.0000 H       1  UNL1        0.0236
    117 H           4.8920    5.7673    0.0000 H       1  UNL1        0.0235
    118 H           4.2816    5.1378    0.0000 H       1  UNL1        0.0235
    119 H           4.9111    4.5275    0.0000 H       1  UNL1        0.0235
    120 H           5.9202    6.3392    0.0000 H       1  UNL1        0.0235
    121 H           5.0699    6.5531    0.0000 H       1  UNL1        0.0235
    122 H           4.8560    5.7028    0.0000 H       1  UNL1        0.0235
    123 H           6.0010   -3.5572    0.0000 H       1  UNL1        0.0938
    124 H           9.9312   -2.9808    0.0000 H       1  UNL1        0.2094
    125 H           8.1055    6.3672    0.0000 H       1  UNL1        0.1060
    126 H           6.0010   -5.7972    0.0000 H       1  UNL1        0.0675
    127 H           7.1658    7.2849    0.0000 H       1  UNL1        0.0407
    128 H           7.5644    6.5946    0.0000 H       1  UNL1        0.0407
    129 H           4.5981   -5.9873    0.0000 H       1  UNL1        0.0648
    130 H           4.2690   -3.5572    0.0000 H       1  UNL1        0.0741
    131 H           3.7320   -4.8672    0.0000 H       1  UNL1        0.0652
    132 H           7.4040   -6.3672    0.0000 H       1  UNL1        0.0938
    133 H           4.5981   -6.9872    0.0000 H       1  UNL1        0.2100
    134 H           3.4030   -6.2972    0.0000 H       1  UNL1        0.2100
    135 H           8.2700   -7.4872    0.0000 H       1  UNL1        0.0675
    136 H          10.6845    8.1403    0.0000 H       1  UNL1        0.0309
    137 H          10.9114    8.9872    0.0000 H       1  UNL1        0.0309
    138 H          10.0645    9.2142    0.0000 H       1  UNL1        0.0309
    139 H           7.7331   -8.7972    0.0000 H       1  UNL1        0.0648
    140 H           9.1794    9.9872    0.0000 H       1  UNL1        0.2924
    141 H           5.4641   -7.8672    0.0000 H       1  UNL1        0.0647
    142 H           2.0000   -3.8672    0.0000 H       1  UNL1        0.2951
    143 H           6.3301   -8.9872    0.0000 H       1  UNL1        0.0647
    144 H           4.9230   -8.0946    0.0000 H       1  UNL1        0.0584
    145 H           4.5244   -8.7849    0.0000 H       1  UNL1        0.0584
    146 H           9.4651   -6.5572    0.0000 H       1  UNL1        0.0938
    147 H           8.5991   -9.2972    0.0000 H       1  UNL1        0.2100
    148 H           7.4040   -9.9872    0.0000 H       1  UNL1        0.2100
    149 H          10.8681   -6.3672    0.0000 H       1  UNL1        0.0671
    150 H           4.5981   -9.9872    0.0000 H       1  UNL1        0.2095
    151 H          11.7341   -7.4872    0.0000 H       1  UNL1        0.0648
    152 H           9.7942   -8.9872    0.0000 H       1  UNL1        0.0621
    153 H          11.1972   -8.7972    0.0000 H       1  UNL1        0.0646
    154 H          10.8681   -5.3672    0.0000 H       1  UNL1        0.2101
    155 H           9.7112   -9.6773    0.0000 H       1  UNL1        0.0255
    156 H          10.3312  -10.2973    0.0000 H       1  UNL1        0.0255
    157 H          10.9512   -9.6773    0.0000 H       1  UNL1        0.0255
    158 H          12.6002   -6.9872    0.0000 H       1  UNL1        0.2100
    159 H          12.0632   -9.2972    0.0000 H       1  UNL1        0.2100
@<TRIPOS>BOND
     1    38     1    1
     2    52     1    1
     3    44     2    1
     4    53     2    1
     5     3    47    1
     6     3   124    1
     7     4    52    1
     8     4    57    1
     9     5    53    1
    10     5    60    1
    11    54     6    1
    12    61     6    1
    13    56     7    1
    14     7   133    1
    15    58     8    1
    16     8   134    1
    17     9    59    2
    18    10    61    1
    19    10    67    1
    20    11    62    1
    21    11   140    1
    22    12    63    1
    23    12   142    1
    24    13    63    2
    25    64    14    1
    26    70    14    1
    27    66    15    1
    28    15   147    1
    29    68    16    1
    30    16   148    1
    31    17    70    1
    32    17    73    1
    33    18    69    1
    34    18   150    1
    35    71    19    1
    36    19   154    1
    37    72    20    1
    38    20   158    1
    39    74    21    1
    40    21   159    1
    41    22    23    1
    42    22    25    1
    43    22    27    1
    44    22    37    1
    45    23    24    1
    46    23    34    1
    47    23    76    1
    48    24    26    1
    49    24    35    1
    50    24    40    1
    51    25    28    1
    52    25    33    1
    53    25    42    1
    54    26    29    1
    55    26    30    1
    56    26    77    1
    57    27    30    1
    58    27    78    1
    59    27    79    1
    60    28    31    1
    61    28    39    2
    62    29    38    1
    63    29    47    1
    64    29    48    1
    65    30    80    1
    66    30    81    1
    67    31    32    1
    68    31    43    1
    69    31    82    1
    70    32    36    1
    71    32    44    1
    72    32    49    1
    73    33    36    1
    74    33    83    1
    75    33    84    1
    76    34    39    1
    77    34    85    1
    78    34    86    1
    79    35    41    1
    80    35    87    1
    81    35    88    1
    82    36    89    1
    83    36    90    1
    84    37    91    1
    85    37    92    1
    86    37    93    1
    87    38    41    1
    88    38    94    1
    89    39    95    1
    90    40    96    1
    91    40    97    1
    92    40    98    1
    93    41    99    1
    94    41   100    1
    95    42   101    1
    96    42   102    1
    97    42   103    1
    98    43    45    1
    99    43   104    1
   100    43   105    1
   101    44    46    1
   102    44   106    1
   103    45    46    1
   104    45    50    1
   105    45    51    1
   106    46   107    1
   107    46   108    1
   108    47   109    1
   109    47   110    1
   110    48   111    1
   111    48   112    1
   112    48   113    1
   113    49   114    1
   114    49   115    1
   115    49   116    1
   116    50   120    1
   117    50   121    1
   118    50   122    1
   119    51   117    1
   120    51   118    1
   121    51   119    1
   122    52    54    1
   123    52   123    1
   124    53    55    1
   125    53   125    1
   126    54    56    1
   127    54   126    1
   128    55    59    1
   129    55   127    1
   130    55   128    1
   131    56    58    1
   132    56   129    1
   133    57    58    1
   134    57    63    1
   135    57   130    1
   136    58   131    1
   137    59    62    1
   138    60    62    2
   139    60    65    1
   140    61    64    1
   141    61   132    1
   142    64    66    1
   143    64   135    1
   144    65   136    1
   145    65   137    1
   146    65   138    1
   147    66    68    1
   148    66   139    1
   149    67    68    1
   150    67    69    1
   151    67   141    1
   152    68   143    1
   153    69   144    1
   154    69   145    1
   155    70    71    1
   156    70   146    1
   157    71    72    1
   158    71   149    1
   159    72    74    1
   160    72   151    1
   161    73    74    1
   162    73    75    1
   163    73   152    1
   164    74   153    1
   165    75   155    1
   166    75   156    1
   167    75   157    1
