@<TRIPOS>MOLECULE
IMPHY010951
 19 20 0 0 0
SMALL
GASTEIGER

@<TRIPOS>ATOM
      1 O           6.0812   -0.8047    0.0000 O.3     1  UNL1       -0.4534
      2 O           2.5369   -1.0000    0.0000 O.3     1  UNL1       -0.3876
      3 O           7.6648    0.0000    0.0000 O.2     1  UNL1       -0.2456
      4 C           5.1350   -0.5000    0.0000 C.3     1  UNL1        0.1312
      5 C           4.2690   -1.0000    0.0000 C.3     1  UNL1        0.0183
      6 C           3.4030   -0.5000    0.0000 C.3     1  UNL1        0.0773
      7 C           5.1350    0.5000    0.0000 C.2     1  UNL1       -0.0006
      8 C           3.4030    0.5000    0.0000 C.2     1  UNL1       -0.0554
      9 C           4.2690    1.0000    0.0000 C.2     1  UNL1       -0.0564
     10 C           6.0812    0.8047    0.0000 C.2     1  UNL1        0.0292
     11 C           6.6648    0.0000    0.0000 C.2     1  UNL1        0.3329
     12 H           5.2250   -1.3452    0.0000 H       1  UNL1        0.0786
     13 H           3.8705   -1.4750    0.0000 H       1  UNL1        0.0332
     14 H           4.6675   -1.4750    0.0000 H       1  UNL1        0.0332
     15 H           3.4030   -1.1200    0.0000 H       1  UNL1        0.0639
     16 H           2.8660    0.8100    0.0000 H       1  UNL1        0.0598
     17 H           4.2690    1.6200    0.0000 H       1  UNL1        0.0619
     18 H           6.2738    1.3940    0.0000 H       1  UNL1        0.0693
     19 H           2.0000   -0.6900    0.0000 H       1  UNL1        0.2102
@<TRIPOS>BOND
     1     1     4    1
     2     1    11    1
     3     6     2    1
     4     2    19    1
     5     3    11    2
     6     4     5    1
     7     4     7    1
     8     4    12    1
     9     5     6    1
    10     5    13    1
    11     5    14    1
    12     6     8    1
    13     6    15    1
    14     7     9    1
    15     7    10    2
    16     8     9    2
    17     8    16    1
    18     9    17    1
    19    10    11    1
    20    10    18    1
