@<TRIPOS>MOLECULE
IMPHY007152
 13 12 0 0 0
SMALL
GASTEIGER

@<TRIPOS>ATOM
      1 S           4.5981    0.2500    0.0000 S.3     1  UNL1       -0.1601
      2 C           3.7320   -0.2500    0.0000 C.3     1  UNL1        0.0113
      3 C           2.8660    0.2500    0.0000 C.2     1  UNL1       -0.0813
      4 C           5.4641   -0.2500    0.0000 C.3     1  UNL1       -0.0178
      5 C           2.0000   -0.2500    0.0000 C.2     1  UNL1       -0.1019
      6 H           3.3335   -0.7249    0.0000 H       1  UNL1        0.0419
      7 H           4.1306   -0.7249    0.0000 H       1  UNL1        0.0419
      8 H           2.8660    0.8700    0.0000 H       1  UNL1        0.0574
      9 H           5.1541   -0.7869    0.0000 H       1  UNL1        0.0341
     10 H           6.0010   -0.5600    0.0000 H       1  UNL1        0.0341
     11 H           5.7741    0.2869    0.0000 H       1  UNL1        0.0341
     12 H           1.4631    0.0600    0.0000 H       1  UNL1        0.0532
     13 H           2.0000   -0.8700    0.0000 H       1  UNL1        0.0532
@<TRIPOS>BOND
     1     1     2    1
     2     1     4    1
     3     2     3    1
     4     2     6    1
     5     2     7    1
     6     3     5    2
     7     3     8    1
     8     4     9    1
     9     4    10    1
    10     4    11    1
    11     5    12    1
    12     5    13    1
