@<TRIPOS>MOLECULE
IMPHY005348
 48 47 0 0 0
SMALL
GASTEIGER

@<TRIPOS>ATOM
      1 O           2.5369    0.7500    0.0000 O.3     1  UNL1       -0.4806
      2 O           3.4030   -0.7500    0.0000 O.2     1  UNL1       -0.2510
      3 C           6.0010    0.7500    0.0000 C.3     1  UNL1       -0.0491
      4 C           5.1350    0.2500    0.0000 C.3     1  UNL1       -0.0427
      5 C           6.8671    0.2500    0.0000 C.3     1  UNL1       -0.0347
      6 C           4.2690    0.7500    0.0000 C.3     1  UNL1        0.0448
      7 C           7.7331    0.7500    0.0000 C.2     1  UNL1       -0.0876
      8 C           8.5991    0.2500    0.0000 C.2     1  UNL1       -0.0842
      9 C           9.4651    0.7500    0.0000 C.3     1  UNL1       -0.0165
     10 C           3.4030    0.2500    0.0000 C.2     1  UNL1        0.3047
     11 C          10.3312    0.2500    0.0000 C.2     1  UNL1       -0.0839
     12 C          12.0632    0.2500    0.0000 C.3     1  UNL1       -0.0165
     13 C          11.1972    0.7500    0.0000 C.2     1  UNL1       -0.0839
     14 C          14.6613    0.7500    0.0000 C.3     1  UNL1       -0.0165
     15 C          12.9292    0.7500    0.0000 C.2     1  UNL1       -0.0839
     16 C          13.7953    0.2500    0.0000 C.2     1  UNL1       -0.0839
     17 C          15.5273    0.2500    0.0000 C.2     1  UNL1       -0.0842
     18 C          17.2594    0.2500    0.0000 C.3     1  UNL1       -0.0376
     19 C          16.3933    0.7500    0.0000 C.2     1  UNL1       -0.0879
     20 C          18.1254    0.7500    0.0000 C.3     1  UNL1       -0.0618
     21 H           6.3996    1.2250    0.0000 H       1  UNL1        0.0268
     22 H           5.6025    1.2250    0.0000 H       1  UNL1        0.0268
     23 H           4.7365   -0.2249    0.0000 H       1  UNL1        0.0270
     24 H           5.5335   -0.2249    0.0000 H       1  UNL1        0.0270
     25 H           6.4685   -0.2249    0.0000 H       1  UNL1        0.0307
     26 H           7.2656   -0.2249    0.0000 H       1  UNL1        0.0307
     27 H           4.6675    1.2250    0.0000 H       1  UNL1        0.0377
     28 H           3.8705    1.2250    0.0000 H       1  UNL1        0.0377
     29 H           7.7331    1.3700    0.0000 H       1  UNL1        0.0569
     30 H           8.5991   -0.3700    0.0000 H       1  UNL1        0.0572
     31 H           9.8637    1.2250    0.0000 H       1  UNL1        0.0350
     32 H           9.0666    1.2250    0.0000 H       1  UNL1        0.0350
     33 H          10.3312   -0.3700    0.0000 H       1  UNL1        0.0572
     34 H          11.6647   -0.2249    0.0000 H       1  UNL1        0.0350
     35 H          12.4617   -0.2249    0.0000 H       1  UNL1        0.0350
     36 H          11.1972    1.3700    0.0000 H       1  UNL1        0.0572
     37 H          15.0598    1.2250    0.0000 H       1  UNL1        0.0350
     38 H          14.2628    1.2250    0.0000 H       1  UNL1        0.0350
     39 H          12.9292    1.3700    0.0000 H       1  UNL1        0.0572
     40 H          13.7953   -0.3700    0.0000 H       1  UNL1        0.0572
     41 H          15.5273   -0.3700    0.0000 H       1  UNL1        0.0572
     42 H          16.8608   -0.2249    0.0000 H       1  UNL1        0.0305
     43 H          17.6579   -0.2249    0.0000 H       1  UNL1        0.0305
     44 H          16.3933    1.3700    0.0000 H       1  UNL1        0.0569
     45 H           2.0000    0.4400    0.0000 H       1  UNL1        0.2951
     46 H          18.4354    0.2131    0.0000 H       1  UNL1        0.0233
     47 H          18.6623    1.0600    0.0000 H       1  UNL1        0.0233
     48 H          17.8154    1.2869    0.0000 H       1  UNL1        0.0233
@<TRIPOS>BOND
     1     1    10    1
     2     1    45    1
     3     2    10    2
     4     3     4    1
     5     3     5    1
     6     3    21    1
     7     3    22    1
     8     4     6    1
     9     4    23    1
    10     4    24    1
    11     5     7    1
    12     5    25    1
    13     5    26    1
    14     6    10    1
    15     6    27    1
    16     6    28    1
    17     7     8    2
    18     7    29    1
    19     8     9    1
    20     8    30    1
    21     9    11    1
    22     9    31    1
    23     9    32    1
    24    11    13    2
    25    11    33    1
    26    12    13    1
    27    12    15    1
    28    12    34    1
    29    12    35    1
    30    13    36    1
    31    14    16    1
    32    14    17    1
    33    14    37    1
    34    14    38    1
    35    15    16    2
    36    15    39    1
    37    16    40    1
    38    17    19    2
    39    17    41    1
    40    18    19    1
    41    18    20    1
    42    18    42    1
    43    18    43    1
    44    19    44    1
    45    20    46    1
    46    20    47    1
    47    20    48    1
