@<TRIPOS>MOLECULE
IMPHY006370
 36 38 0 0 0
SMALL
GASTEIGER

@<TRIPOS>ATOM
      1 O           7.3062    0.7056    0.0000 O.2     1  UNL1       -0.4820
      2 O           2.8641   -0.8221    0.0000 O.3     1  UNL1       -0.4536
      3 O           5.5301   -2.3013    0.0000 O.2     1  UNL1       -0.5028
      4 O           7.2622   -1.3013    0.0000 O.2     1  UNL1       -0.2801
      5 O           2.0000    0.7229    0.0000 O.2     1  UNL1       -0.2456
      6 C           7.3142    1.7472    0.0000 C.3     1  UNL1        0.1056
      7 C           6.4121    2.2680    0.0000 C.3     1  UNL1       -0.0093
      8 C           5.5141    1.7402    0.0000 C.3     1  UNL1       -0.0199
      9 C           5.5301    0.6987    0.0000 C.2     1  UNL1        0.0062
     10 C           6.3961    0.1987    0.0000 C.2     1  UNL1        0.1751
     11 C           4.6641    0.1987    0.0000 C.2     1  UNL1       -0.0012
     12 C           4.6641   -0.8013    0.0000 C.2     1  UNL1        0.0456
     13 C           7.8175    2.6113    0.0000 C.3     1  UNL1       -0.0252
     14 C           8.3142    1.7433    0.0000 C.3     1  UNL1       -0.0252
     15 C           3.7702   -1.3359    0.0000 C.3     1  UNL1        0.1296
     16 C           6.3961   -0.8013    0.0000 C.2     1  UNL1        0.2619
     17 C           5.5301   -1.3013    0.0000 C.2     1  UNL1        0.1747
     18 C           3.7702    0.7334    0.0000 C.2     1  UNL1        0.0305
     19 C           3.7817   -2.3359    0.0000 C.3     1  UNL1       -0.0233
     20 C           2.8641    0.2195    0.0000 C.2     1  UNL1        0.3331
     21 H           6.8094    2.7440    0.0000 H       1  UNL1        0.0307
     22 H           6.0111    2.7409    0.0000 H       1  UNL1        0.0307
     23 H           5.2960    2.3206    0.0000 H       1  UNL1        0.0316
     24 H           4.9049    1.6247    0.0000 H       1  UNL1        0.0316
     25 H           8.3532    2.2992    0.0000 H       1  UNL1        0.0268
     26 H           8.3118    1.1233    0.0000 H       1  UNL1        0.0268
     27 H           8.9342    1.7409    0.0000 H       1  UNL1        0.0268
     28 H           8.3166    2.3633    0.0000 H       1  UNL1        0.0268
     29 H           8.1296    3.1470    0.0000 H       1  UNL1        0.0268
     30 H           7.2818    2.9233    0.0000 H       1  UNL1        0.0268
     31 H           3.2362   -1.6511    0.0000 H       1  UNL1        0.0784
     32 H           3.7773    1.3534    0.0000 H       1  UNL1        0.0695
     33 H           3.1618   -2.3430    0.0000 H       1  UNL1        0.0269
     34 H           3.7889   -2.9558    0.0000 H       1  UNL1        0.0269
     35 H           4.4017   -2.3287    0.0000 H       1  UNL1        0.0269
     36 H           6.0671   -2.6113    0.0000 H       1  UNL1        0.2923
@<TRIPOS>BOND
     1     1     6    1
     2     1    10    1
     3     2    15    1
     4     2    20    1
     5     3    17    1
     6     3    36    1
     7     4    16    2
     8     5    20    2
     9     6     7    1
    10     6    13    1
    11     6    14    1
    12     7     8    1
    13     7    21    1
    14     7    22    1
    15     8     9    1
    16     8    23    1
    17     8    24    1
    18     9    10    2
    19     9    11    1
    20    10    16    1
    21    11    12    1
    22    11    18    2
    23    12    15    1
    24    12    17    2
    25    13    25    1
    26    13    29    1
    27    13    30    1
    28    14    26    1
    29    14    27    1
    30    14    28    1
    31    15    19    1
    32    15    31    1
    33    16    17    1
    34    18    20    1
    35    18    32    1
    36    19    33    1
    37    19    34    1
    38    19    35    1
