@<TRIPOS>MOLECULE
IMPHY007223
 20 20 0 0 0
SMALL
GASTEIGER

@<TRIPOS>ATOM
      1 O           4.5981    2.5000    0.0000 O.co2   1  UNL1       -0.5818
      2 O           2.8660    2.5000    0.0000 O.2     1  UNL1        0.0344
      3 N           3.7320    2.0000    0.0000 N.pl3   1  UNL1        0.0382
      4 C           2.8660    0.5000    0.0000 C.3     1  UNL1        0.0375
      5 C           2.8660   -0.5000    0.0000 C.ar    1  UNL1       -0.0412
      6 C           3.7320    1.0000    0.0000 C.3     1  UNL1        0.2116
      7 C           2.0000   -1.0000    0.0000 C.ar    1  UNL1       -0.0584
      8 C           3.7320   -1.0000    0.0000 C.ar    1  UNL1       -0.0584
      9 C           2.0000   -2.0000    0.0000 C.ar    1  UNL1       -0.0615
     10 C           3.7320   -2.0000    0.0000 C.ar    1  UNL1       -0.0615
     11 C           2.8660   -2.5000    0.0000 C.ar    1  UNL1       -0.0617
     12 H           2.6540    1.0826    0.0000 H       1  UNL1        0.0377
     13 H           2.2554    0.3923    0.0000 H       1  UNL1        0.0377
     14 H           3.9441    0.4174    0.0000 H       1  UNL1        0.1091
     15 H           4.3426    1.1077    0.0000 H       1  UNL1        0.1091
     16 H           1.4631   -0.6900    0.0000 H       1  UNL1        0.0620
     17 H           4.2690   -0.6900    0.0000 H       1  UNL1        0.0620
     18 H           1.4631   -2.3100    0.0000 H       1  UNL1        0.0618
     19 H           4.2690   -2.3100    0.0000 H       1  UNL1        0.0618
     20 H           2.8660   -3.1200    0.0000 H       1  UNL1        0.0618
@<TRIPOS>UNITY_ATOM_ATTR
1 1
charge -1
3 1
charge 1
@<TRIPOS>BOND
     1     1     3    1
     2     2     3    2
     3     3     6    1
     4     4     5    1
     5     4     6    1
     6     4    12    1
     7     4    13    1
     8     5     7   ar
     9     5     8   ar
    10     6    14    1
    11     6    15    1
    12     7     9   ar
    13     7    16    1
    14     8    10   ar
    15     8    17    1
    16     9    11   ar
    17     9    18    1
    18    10    11   ar
    19    10    19    1
    20    11    20    1
