@<TRIPOS>MOLECULE
IMPHY002871
 30 31 0 0 0
SMALL
GASTEIGER

@<TRIPOS>ATOM
      1 O           2.8660   -1.1824    0.0000 O.3     1  UNL1       -0.4641
      2 O           7.1279   -0.6824    0.0000 O.3     1  UNL1       -0.3915
      3 O           2.8660    1.8176    0.0000 O.3     1  UNL1       -0.3942
      4 O           2.0000    0.3176    0.0000 O.2     1  UNL1       -0.2504
      5 C           4.5981   -0.1824    0.0000 C.3     1  UNL1       -0.0174
      6 C           4.5981   -1.1824    0.0000 C.3     1  UNL1        0.0020
      7 C           5.5443   -1.4871    0.0000 C.3     1  UNL1       -0.0116
      8 C           5.5443    0.1224    0.0000 C.3     1  UNL1       -0.0226
      9 C           6.1279   -0.6824    0.0000 C.3     1  UNL1        0.0585
     10 C           3.7320    0.3176    0.0000 C.3     1  UNL1        0.0827
     11 C           3.7320   -1.6824    0.0000 C.3     1  UNL1        0.0959
     12 C           5.8550   -2.4376    0.0000 C.3     1  UNL1       -0.0597
     13 C           2.8660   -0.1824    0.0000 C.2     1  UNL1        0.3127
     14 C           3.7320    1.3176    0.0000 C.3     1  UNL1        0.0574
     15 H           4.6880    0.6629    0.0000 H       1  UNL1        0.0314
     16 H           4.6880   -2.0276    0.0000 H       1  UNL1        0.0340
     17 H           5.1068   -1.9265    0.0000 H       1  UNL1        0.0327
     18 H           6.0817    0.4316    0.0000 H       1  UNL1        0.0293
     19 H           5.2933    0.6893    0.0000 H       1  UNL1        0.0293
     20 H           6.4096   -0.1301    0.0000 H       1  UNL1        0.0596
     21 H           4.2690    0.6276    0.0000 H       1  UNL1        0.0439
     22 H           3.3335   -2.1573    0.0000 H       1  UNL1        0.0700
     23 H           4.1306   -2.1573    0.0000 H       1  UNL1        0.0700
     24 H           5.2656   -2.6302    0.0000 H       1  UNL1        0.0233
     25 H           6.0476   -3.0269    0.0000 H       1  UNL1        0.0233
     26 H           6.4443   -2.2450    0.0000 H       1  UNL1        0.0233
     27 H           4.3426    1.2100    0.0000 H       1  UNL1        0.0565
     28 H           3.9441    1.9002    0.0000 H       1  UNL1        0.0565
     29 H           7.4379   -0.1454    0.0000 H       1  UNL1        0.2098
     30 H           2.8660    2.4376    0.0000 H       1  UNL1        0.2094
@<TRIPOS>BOND
     1     1    11    1
     2     1    13    1
     3     9     2    1
     4     2    29    1
     5     3    14    1
     6     3    30    1
     7     4    13    2
     8     5     6    1
     9     5     8    1
    10     5    10    1
    11     5    15    1
    12     6     7    1
    13     6    11    1
    14     6    16    1
    15     7     9    1
    16     7    12    1
    17     7    17    1
    18     8     9    1
    19     8    18    1
    20     8    19    1
    21     9    20    1
    22    10    13    1
    23    10    14    1
    24    10    21    1
    25    11    22    1
    26    11    23    1
    27    12    24    1
    28    12    25    1
    29    12    26    1
    30    14    27    1
    31    14    28    1
