@<TRIPOS>MOLECULE
IMPHY016207
 45 44 0 0 0
SMALL
GASTEIGER

@<TRIPOS>ATOM
      1 O           2.5369    0.7500    0.0000 O.3     1  UNL1       -0.4806
      2 O           3.4030   -0.7500    0.0000 O.2     1  UNL1       -0.2510
      3 C           8.5991    0.2500    0.0000 C.3     1  UNL1       -0.0531
      4 C           9.4651    0.7500    0.0000 C.3     1  UNL1       -0.0531
      5 C           7.7331    0.7500    0.0000 C.3     1  UNL1       -0.0531
      6 C          10.3312    0.2500    0.0000 C.3     1  UNL1       -0.0531
      7 C           6.8671    0.2500    0.0000 C.3     1  UNL1       -0.0530
      8 C          11.1972    0.7500    0.0000 C.3     1  UNL1       -0.0530
      9 C           6.0010    0.7500    0.0000 C.3     1  UNL1       -0.0526
     10 C          12.0632    0.2500    0.0000 C.3     1  UNL1       -0.0528
     11 C          12.9292    0.7500    0.0000 C.3     1  UNL1       -0.0496
     12 C           5.1350    0.2500    0.0000 C.3     1  UNL1       -0.0430
     13 C          13.7953    0.2500    0.0000 C.3     1  UNL1       -0.0350
     14 C           4.2690    0.7500    0.0000 C.3     1  UNL1        0.0448
     15 C          14.6613    0.7500    0.0000 C.2     1  UNL1       -0.0911
     16 C           3.4030    0.2500    0.0000 C.2     1  UNL1        0.3047
     17 C          15.5273    0.2500    0.0000 C.2     1  UNL1       -0.1026
     18 H           8.2006   -0.2249    0.0000 H       1  UNL1        0.0265
     19 H           8.9976   -0.2249    0.0000 H       1  UNL1        0.0265
     20 H           9.8637    1.2250    0.0000 H       1  UNL1        0.0265
     21 H           9.0666    1.2250    0.0000 H       1  UNL1        0.0265
     22 H           8.1316    1.2250    0.0000 H       1  UNL1        0.0265
     23 H           7.3346    1.2250    0.0000 H       1  UNL1        0.0265
     24 H           9.9326   -0.2249    0.0000 H       1  UNL1        0.0265
     25 H          10.7297   -0.2249    0.0000 H       1  UNL1        0.0265
     26 H           6.4685   -0.2249    0.0000 H       1  UNL1        0.0265
     27 H           7.2656   -0.2249    0.0000 H       1  UNL1        0.0265
     28 H          11.5957    1.2250    0.0000 H       1  UNL1        0.0265
     29 H          10.7987    1.2250    0.0000 H       1  UNL1        0.0265
     30 H           6.3996    1.2250    0.0000 H       1  UNL1        0.0265
     31 H           5.6025    1.2250    0.0000 H       1  UNL1        0.0265
     32 H          11.6647   -0.2249    0.0000 H       1  UNL1        0.0265
     33 H          12.4617   -0.2249    0.0000 H       1  UNL1        0.0265
     34 H          13.3278    1.2250    0.0000 H       1  UNL1        0.0268
     35 H          12.5307    1.2250    0.0000 H       1  UNL1        0.0268
     36 H           4.7365   -0.2249    0.0000 H       1  UNL1        0.0270
     37 H           5.5335   -0.2249    0.0000 H       1  UNL1        0.0270
     38 H          13.3967   -0.2249    0.0000 H       1  UNL1        0.0307
     39 H          14.1938   -0.2249    0.0000 H       1  UNL1        0.0307
     40 H           4.6675    1.2250    0.0000 H       1  UNL1        0.0377
     41 H           3.8705    1.2250    0.0000 H       1  UNL1        0.0377
     42 H          14.6613    1.3700    0.0000 H       1  UNL1        0.0566
     43 H          15.5273   -0.3700    0.0000 H       1  UNL1        0.0532
     44 H          16.0643    0.5600    0.0000 H       1  UNL1        0.0532
     45 H           2.0000    0.4400    0.0000 H       1  UNL1        0.2951
@<TRIPOS>BOND
     1     1    16    1
     2     1    45    1
     3     2    16    2
     4     3     4    1
     5     3     5    1
     6     3    18    1
     7     3    19    1
     8     4     6    1
     9     4    20    1
    10     4    21    1
    11     5     7    1
    12     5    22    1
    13     5    23    1
    14     6     8    1
    15     6    24    1
    16     6    25    1
    17     7     9    1
    18     7    26    1
    19     7    27    1
    20     8    10    1
    21     8    28    1
    22     8    29    1
    23     9    12    1
    24     9    30    1
    25     9    31    1
    26    10    11    1
    27    10    32    1
    28    10    33    1
    29    11    13    1
    30    11    34    1
    31    11    35    1
    32    12    14    1
    33    12    36    1
    34    12    37    1
    35    13    15    1
    36    13    38    1
    37    13    39    1
    38    14    16    1
    39    14    40    1
    40    14    41    1
    41    15    17    2
    42    15    42    1
    43    17    43    1
    44    17    44    1
