@<TRIPOS>MOLECULE
IMPHY012298
 50 53 0 0 0
SMALL
GASTEIGER

@<TRIPOS>ATOM
      1 O           2.0000   -2.1712    0.0000 O.3     1  UNL1       -0.4526
      2 O           3.4519   -3.0094    0.0000 O.3     1  UNL1       -0.4526
      3 O           8.0322    2.6068    0.0000 O.3     1  UNL1       -0.4911
      4 O           6.2838    0.5722    0.0000 O.2     1  UNL1       -0.2917
      5 O           9.8139    1.5963    0.0000 O.3     1  UNL1       -0.4914
      6 N           5.4178    1.0722    0.0000 N.3     1  UNL1       -0.3007
      7 C           4.5518    1.5722    0.0000 C.3     1  UNL1        0.0029
      8 C           3.6857    1.0722    0.0000 C.3     1  UNL1       -0.0141
      9 C           6.2838    1.5722    0.0000 C.3     1  UNL1        0.0276
     10 C           3.6857    0.0722    0.0000 C.ar    1  UNL1       -0.0320
     11 C           7.1498    1.0722    0.0000 C.ar    1  UNL1        0.0154
     12 C           7.1498    0.0722    0.0000 C.ar    1  UNL1       -0.0318
     13 C           4.5518   -0.4278    0.0000 C.ar    1  UNL1        0.0246
     14 C           6.2838   -0.4278    0.0000 C.3     1  UNL1        0.0361
     15 C           5.4178    0.0722    0.0000 C.2     1  UNL1        0.1678
     16 C           2.7757   -0.4347    0.0000 C.ar    1  UNL1       -0.0123
     17 C           8.0438    1.6068    0.0000 C.ar    1  UNL1        0.1661
     18 C           4.5678   -1.4694    0.0000 C.ar    1  UNL1       -0.0054
     19 C           4.5518    0.5721    0.0000 C.3     1  UNL1       -0.0124
     20 C           2.7677   -1.4763    0.0000 C.ar    1  UNL1        0.1665
     21 C           3.6698   -1.9971    0.0000 C.ar    1  UNL1        0.1669
     22 C           8.0438   -0.4625    0.0000 C.ar    1  UNL1       -0.0542
     23 C           8.9498    1.0930    0.0000 C.ar    1  UNL1        0.1618
     24 C           8.9498    0.0513    0.0000 C.ar    1  UNL1       -0.0160
     25 C           2.4220   -3.1167    0.0000 C.3     1  UNL1        0.2332
     26 C           8.8924    3.1167    0.0000 C.3     1  UNL1        0.0790
     27 C          10.6819    1.0996    0.0000 C.3     1  UNL1        0.0790
     28 H           4.9503    2.0471    0.0000 H       1  UNL1        0.0430
     29 H           4.1532    2.0471    0.0000 H       1  UNL1        0.0430
     30 H           3.4737    1.6548    0.0000 H       1  UNL1        0.0326
     31 H           3.0752    0.9645    0.0000 H       1  UNL1        0.0326
     32 H           6.6823    2.0471    0.0000 H       1  UNL1        0.0477
     33 H           5.8853    2.0471    0.0000 H       1  UNL1        0.0477
     34 H           5.8853   -0.9028    0.0000 H       1  UNL1        0.0394
     35 H           6.6823   -0.9028    0.0000 H       1  UNL1        0.0394
     36 H           2.2424   -0.1185    0.0000 H       1  UNL1        0.0658
     37 H           5.1083   -1.7731    0.0000 H       1  UNL1        0.0662
     38 H           4.2418    1.1090    0.0000 H       1  UNL1        0.0391
     39 H           4.0149    0.2620    0.0000 H       1  UNL1        0.0391
     40 H           4.8619    0.0352    0.0000 H       1  UNL1        0.0391
     41 H           8.0366   -1.0825    0.0000 H       1  UNL1        0.0622
     42 H           9.4856   -0.2607    0.0000 H       1  UNL1        0.0655
     43 H           1.8324   -3.3085    0.0000 H       1  UNL1        0.1166
     44 H           2.5507   -3.7232    0.0000 H       1  UNL1        0.1166
     45 H           9.2086    2.5834    0.0000 H       1  UNL1        0.0660
     46 H           9.4257    3.4329    0.0000 H       1  UNL1        0.0660
     47 H           8.5762    3.6500    0.0000 H       1  UNL1        0.0660
     48 H          10.3740    0.5615    0.0000 H       1  UNL1        0.0660
     49 H          11.2200    0.7917    0.0000 H       1  UNL1        0.0660
     50 H          10.9898    1.6378    0.0000 H       1  UNL1        0.0660
@<TRIPOS>BOND
     1     1    20    1
     2     1    25    1
     3     2    21    1
     4     2    25    1
     5     3    17    1
     6     3    26    1
     7     4    15    2
     8     5    23    1
     9     5    27    1
    10     6     7    1
    11     6     9    1
    12     6    19    1
    13     7     8    1
    14     7    28    1
    15     7    29    1
    16     8    10    1
    17     8    30    1
    18     8    31    1
    19     9    11    1
    20     9    32    1
    21     9    33    1
    22    10    13   ar
    23    10    16   ar
    24    11    12   ar
    25    11    17   ar
    26    12    14    1
    27    12    22   ar
    28    13    15    1
    29    13    18   ar
    30    14    15    1
    31    14    34    1
    32    14    35    1
    33    16    20   ar
    34    16    36    1
    35    17    23   ar
    36    18    21   ar
    37    18    37    1
    38    19    38    1
    39    19    39    1
    40    19    40    1
    41    20    21   ar
    42    22    24   ar
    43    22    41    1
    44    23    24   ar
    45    24    42    1
    46    25    43    1
    47    25    44    1
    48    26    45    1
    49    26    46    1
    50    26    47    1
    51    27    48    1
    52    27    49    1
    53    27    50    1
