@<TRIPOS>MOLECULE
IMPHY009325
 41 43 0 0 0
SMALL
GASTEIGER

@<TRIPOS>ATOM
      1 O           4.5981    1.2500    0.0000 O.3     1  UNL1       -0.3747
      2 O           9.8744   -1.5547    0.0000 O.2     1  UNL1       -0.4628
      3 O           8.0622    1.2500    0.0000 O.3     1  UNL1       -0.4937
      4 O           6.3301    1.2500    0.0000 O.2     1  UNL1       -0.2918
      5 C           4.5981    0.2500    0.0000 C.3     1  UNL1        0.0902
      6 C           5.4641   -0.2500    0.0000 C.3     1  UNL1        0.0410
      7 C           7.1962   -0.2500    0.0000 C.ar    1  UNL1        0.0599
      8 C           6.3301    0.2500    0.0000 C.2     1  UNL1        0.1695
      9 C           3.7320   -0.2500    0.0000 C.ar    1  UNL1       -0.0185
     10 C           8.0622    0.2500    0.0000 C.ar    1  UNL1        0.1413
     11 C           8.9282   -0.2500    0.0000 C.ar    1  UNL1        0.0624
     12 C           8.9282   -1.2500    0.0000 C.ar    1  UNL1        0.1383
     13 C           7.1962   -1.2500    0.0000 C.ar    1  UNL1       -0.0442
     14 C           8.0622   -1.7500    0.0000 C.ar    1  UNL1       -0.0179
     15 C           2.8660    0.2500    0.0000 C.ar    1  UNL1       -0.0561
     16 C           3.7320   -1.2500    0.0000 C.ar    1  UNL1       -0.0561
     17 C           9.8744    0.0547    0.0000 C.ar    1  UNL1       -0.0126
     18 C          10.4580   -0.7500    0.0000 C.ar    1  UNL1        0.0932
     19 C           2.0000   -0.2500    0.0000 C.ar    1  UNL1       -0.0614
     20 C           2.8660   -1.7500    0.0000 C.ar    1  UNL1       -0.0614
     21 C           3.7320    1.7500    0.0000 C.3     1  UNL1        0.0372
     22 C           2.0000   -1.2500    0.0000 C.ar    1  UNL1       -0.0617
     23 C           8.9282    1.7500    0.0000 C.3     1  UNL1        0.0788
     24 H           5.1350    0.5600    0.0000 H       1  UNL1        0.0650
     25 H           5.0656   -0.7249    0.0000 H       1  UNL1        0.0374
     26 H           5.8626   -0.7249    0.0000 H       1  UNL1        0.0374
     27 H           6.6592   -1.5600    0.0000 H       1  UNL1        0.0627
     28 H           8.0622   -2.3700    0.0000 H       1  UNL1        0.0655
     29 H           2.8660    0.8700    0.0000 H       1  UNL1        0.0621
     30 H           4.2690   -1.5600    0.0000 H       1  UNL1        0.0621
     31 H          10.0670    0.6441    0.0000 H       1  UNL1        0.0656
     32 H          11.0780   -0.7500    0.0000 H       1  UNL1        0.1030
     33 H           1.4631    0.0600    0.0000 H       1  UNL1        0.0618
     34 H           2.8660   -2.3700    0.0000 H       1  UNL1        0.0618
     35 H           4.0420    2.2869    0.0000 H       1  UNL1        0.0524
     36 H           3.1951    2.0600    0.0000 H       1  UNL1        0.0524
     37 H           3.4220    1.2131    0.0000 H       1  UNL1        0.0524
     38 H           1.4631   -1.5600    0.0000 H       1  UNL1        0.0618
     39 H           9.2382    1.2131    0.0000 H       1  UNL1        0.0660
     40 H           9.4651    2.0600    0.0000 H       1  UNL1        0.0660
     41 H           8.6182    2.2869    0.0000 H       1  UNL1        0.0660
@<TRIPOS>BOND
     1     1     5    1
     2     1    21    1
     3     2    12   ar
     4     2    18   ar
     5     3    10    1
     6     3    23    1
     7     4     8    2
     8     5     6    1
     9     5     9    1
    10     5    24    1
    11     6     8    1
    12     6    25    1
    13     6    26    1
    14     7     8    1
    15     7    10   ar
    16     7    13   ar
    17     9    15   ar
    18     9    16   ar
    19    10    11   ar
    20    11    12   ar
    21    11    17   ar
    22    12    14   ar
    23    13    14   ar
    24    13    27    1
    25    14    28    1
    26    15    19   ar
    27    15    29    1
    28    16    20   ar
    29    16    30    1
    30    17    18   ar
    31    17    31    1
    32    18    32    1
    33    19    22   ar
    34    19    33    1
    35    20    22   ar
    36    20    34    1
    37    21    35    1
    38    21    36    1
    39    21    37    1
    40    22    38    1
    41    23    39    1
    42    23    40    1
    43    23    41    1
