@<TRIPOS>MOLECULE
IMPHY010795
 27 31 0 0 0
SMALL
GASTEIGER

@<TRIPOS>ATOM
      1 O           5.7032   -4.0381    0.0000 O.3     1  UNL1       -0.4447
      2 C           5.7032   -5.3642    0.0000 C.2     1  UNL1        0.3371
      3 C           4.5466   -6.0323    0.0000 C.2     1  UNL1        0.0510
      4 C           3.3900   -5.3642    0.0000 C.3     1  UNL1        0.0548
      5 C           2.2733   -6.0323    0.0000 C.3     1  UNL1        0.1382
      6 C           2.2733   -7.3384    0.0000 C.3     1  UNL1        0.0805
      7 C           1.1367   -8.0065    0.0000 C.3     1  UNL1        0.0952
      8 C           1.1367   -9.3126    0.0000 C.2     1  UNL1        0.3162
      9 O           2.4029   -9.7414    0.0000 O.3     1  UNL1       -0.4484
     10 C           3.1009   -8.3854    0.0000 C.3     1  UNL1        0.2115
     11 C           4.5466   -3.3801    0.0000 C.3     1  UNL1        0.1949
     12 C           3.3900   -4.0381    0.0000 C.3     1  UNL1        0.0551
     13 C           4.5466   -7.3384    0.0000 C.2     1  UNL1       -0.0237
     14 C           3.4000   -8.0065    0.0000 C.3     1  UNL1        0.0324
     15 C           1.1367   -5.3642    0.0000 C.3     1  UNL1        0.0565
     16 C           0.0000   -6.0323    0.0000 C.2     1  UNL1       -0.0279
     17 C           0.0000   -7.3384    0.0000 C.2     1  UNL1       -0.0245
     18 O           6.8598   -6.0223    0.0000 O.2     1  UNL1       -0.2453
     19 C           3.4000   -6.6903    0.0000 C.3     1  UNL1        0.0072
     20 O           2.2733   -4.7161    0.0000 O.3     1  UNL1       -0.2249
     21 O           0.0000   -9.9707    0.0000 O.2     1  UNL1       -0.2501
     22 C           4.5466   -2.0540    0.0000 C.ar    1  UNL1        0.0580
     23 C           5.6334   -1.2762    0.0000 C.ar    1  UNL1        0.1789
     24 O           5.2147    0.0000    0.0000 O.2     1  UNL1       -0.4475
     25 C           3.8686    0.0000    0.0000 C.ar    1  UNL1        0.1795
     26 C           3.4698   -1.2762    0.0000 C.ar    1  UNL1        0.0430
     27 H           0.0000   -8.6546    0.0000 H       1  UNL1        0.0471
@<TRIPOS>BOND
     1     1     2    1
     2     1    11    1
     3     2     3    1
     4     2    18    2
     5     3    13    2
     6     3     4    1
     7     4     5    1
     8     4    12    1
     9     4    19    1
    10     5     6    1
    11     5    20    1
    12     5    15    1
    13     6    14    1
    14     6     7    1
    15     6    10    1
    16     7     8    1
    17     7    27    1
    18     7    17    1
    19     8     9    1
    20     8    21    2
    21     9    10    1
    22    11    12    1
    23    11    22    1
    24    13    14    1
    25    15    16    1
    26    16    17    2
    27    22    26   ar
    28    22    23   ar
    29    23    24   ar
    30    24    25   ar
    31    25    26   ar
