@<TRIPOS>MOLECULE
IMPHY013705
 140 147 0 0 0
SMALL
GASTEIGER

@<TRIPOS>ATOM
      1 O           6.8671   -5.7745    0.0000 O.3     1  UNL1       -0.3449
      2 O           9.6611    1.3040    0.0000 O.3     1  UNL1       -0.3906
      3 O           9.5042    2.0150    0.0000 O.3     1  UNL1       -0.4306
      4 O           8.6209    3.5049    0.0000 O.2     1  UNL1       -0.2500
      5 O           5.1350   -5.7745    0.0000 O.3     1  UNL1       -0.3315
      6 O          11.2361    2.0351    0.0000 O.3     1  UNL1       -0.3360
      7 O           6.8671   -7.7745    0.0000 O.3     1  UNL1       -0.3841
      8 O           5.1350   -8.7745    0.0000 O.3     1  UNL1       -0.3864
      9 O           9.4810    4.0149    0.0000 O.3     1  UNL1       -0.4492
     10 O           3.4030   -7.7745    0.0000 O.3     1  UNL1       -0.3860
     11 O          11.2014    5.0349    0.0000 O.3     1  UNL1       -0.3853
     12 O          12.9449    4.0550    0.0000 O.3     1  UNL1       -0.3868
     13 O           2.5369   -6.2745    0.0000 O.3     1  UNL1       -0.4788
     14 O           3.4030   -4.7745    0.0000 O.2     1  UNL1       -0.2480
     15 O          10.3297    5.5248    0.0000 O.2     1  UNL1       -0.2456
     16 O           5.1223    6.4647    0.0000 O.3     1  UNL1       -0.4914
     17 O           5.0992    8.4645    0.0000 O.3     1  UNL1       -0.5033
     18 C           7.7681   -1.0743    0.0000 C.3     1  UNL1       -0.0193
     19 C           6.9040   -1.5776    0.0000 C.3     1  UNL1       -0.0257
     20 C           6.8920   -2.6192    0.0000 C.3     1  UNL1       -0.0250
     21 C           7.7643   -0.0743    0.0000 C.3     1  UNL1       -0.0028
     22 C           7.7920   -3.1435    0.0000 C.3     1  UNL1       -0.0278
     23 C           8.6801   -1.5776    0.0000 C.3     1  UNL1       -0.0463
     24 C           8.6921   -2.6192    0.0000 C.3     1  UNL1       -0.0486
     25 C           6.8963    0.4224    0.0000 C.2     1  UNL1       -0.0627
     26 C           7.8046   -4.2284    0.0000 C.3     1  UNL1       -0.0052
     27 C           6.8762    1.4638    0.0000 C.3     1  UNL1       -0.0007
     28 C           6.0361   -1.0810    0.0000 C.3     1  UNL1       -0.0306
     29 C           5.9421   -3.1435    0.0000 C.3     1  UNL1       -0.0447
     30 C           8.6723    0.4361    0.0000 C.3     1  UNL1       -0.0162
     31 C           7.7722    1.9950    0.0000 C.3     1  UNL1        0.1000
     32 C           8.6763    1.4777    0.0000 C.3     1  UNL1        0.0723
     33 C           8.7522   -0.8968    0.0000 C.3     1  UNL1       -0.0585
     34 C           6.8671   -4.7745    0.0000 C.3     1  UNL1        0.0672
     35 C           6.0322   -0.0810    0.0000 C.2     1  UNL1       -0.0836
     36 C           6.0279   -2.1158    0.0000 C.3     1  UNL1       -0.0590
     37 C           5.9295   -4.2284    0.0000 C.3     1  UNL1       -0.0255
     38 C           8.7497   -0.2441    0.0000 C.3     1  UNL1       -0.0552
     39 C           5.9223    1.9808    0.0000 C.3     1  UNL1       -0.0402
     40 C           7.7764    3.0800    0.0000 C.3     1  UNL1       -0.0338
     41 C           5.9014    3.0656    0.0000 C.3     1  UNL1       -0.0343
     42 C           8.8046   -4.2207    0.0000 C.3     1  UNL1       -0.0572
     43 C           8.3113   -5.0905    0.0000 C.3     1  UNL1       -0.0572
     44 C           6.8347    3.6189    0.0000 C.3     1  UNL1       -0.0467
     45 C           8.6324    2.5050    0.0000 C.2     1  UNL1        0.3187
     46 C           5.3881    3.9238    0.0000 C.3     1  UNL1       -0.0598
     47 C           4.9015    3.0501    0.0000 C.3     1  UNL1       -0.0598
     48 C           6.0010   -6.2745    0.0000 C.3     1  UNL1        0.1888
     49 C           6.0010   -7.2745    0.0000 C.3     1  UNL1        0.1341
     50 C          10.3644    2.5250    0.0000 C.3     1  UNL1        0.2447
     51 C           5.1350   -7.7745    0.0000 C.3     1  UNL1        0.1145
     52 C           4.2690   -6.2745    0.0000 C.3     1  UNL1        0.1859
     53 C           4.2690   -7.2745    0.0000 C.3     1  UNL1        0.1201
     54 C          10.3528    3.5250    0.0000 C.3     1  UNL1        0.1933
     55 C          11.2130    4.0349    0.0000 C.3     1  UNL1        0.1259
     56 C          12.0963    2.5451    0.0000 C.3     1  UNL1        0.0803
     57 C          12.0847    3.5450    0.0000 C.3     1  UNL1        0.1081
     58 C           3.4030   -5.7745    0.0000 C.2     1  UNL1        0.3367
     59 C           9.4695    5.0148    0.0000 C.2     1  UNL1        0.3325
     60 C           8.5977    5.5048    0.0000 C.2     1  UNL1        0.0231
     61 C           8.5862    6.5047    0.0000 C.2     1  UNL1       -0.0477
     62 C           7.7144    6.9947    0.0000 C.ar    1  UNL1       -0.0211
     63 C           6.8542    6.4847    0.0000 C.ar    1  UNL1       -0.0092
     64 C           7.7029    7.9946    0.0000 C.ar    1  UNL1       -0.0509
     65 C           5.9825    6.9747    0.0000 C.ar    1  UNL1        0.1618
     66 C           6.8311    8.4846    0.0000 C.ar    1  UNL1       -0.0160
     67 C           5.9709    7.9746    0.0000 C.ar    1  UNL1        0.1585
     68 C           4.2506    6.9546    0.0000 C.3     1  UNL1        0.0790
     69 H           7.4398   -1.8897    0.0000 H       1  UNL1        0.0315
     70 H           8.3314   -3.4493    0.0000 H       1  UNL1        0.0312
     71 H           9.2921   -1.6766    0.0000 H       1  UNL1        0.0271
     72 H           8.8824   -0.9915    0.0000 H       1  UNL1        0.0271
     73 H           8.9079   -3.2004    0.0000 H       1  UNL1        0.0268
     74 H           9.3017   -2.5060    0.0000 H       1  UNL1        0.0268
     75 H           6.1502    1.0219    0.0000 H       1  UNL1        0.0357
     76 H           5.4251   -0.9756    0.0000 H       1  UNL1        0.0310
     77 H           5.8263   -1.6644    0.0000 H       1  UNL1        0.0310
     78 H           5.7398   -2.5574    0.0000 H       1  UNL1        0.0271
     79 H           5.3300   -3.2425    0.0000 H       1  UNL1        0.0271
     80 H           8.8791   -0.1484    0.0000 H       1  UNL1        0.0299
     81 H           9.2836    0.5398    0.0000 H       1  UNL1        0.0299
     82 H           8.8872    2.0607    0.0000 H       1  UNL1        0.0605
     83 H           8.8623   -1.5070    0.0000 H       1  UNL1        0.0235
     84 H           9.3624   -0.7868    0.0000 H       1  UNL1        0.0235
     85 H           8.6422   -0.2867    0.0000 H       1  UNL1        0.0235
     86 H           7.4046   -5.0835    0.0000 H       1  UNL1        0.0602
     87 H           5.4941    0.2270    0.0000 H       1  UNL1        0.0572
     88 H           6.3400   -1.5801    0.0000 H       1  UNL1        0.0235
     89 H           5.4922   -1.8038    0.0000 H       1  UNL1        0.0235
     90 H           5.7158   -2.6516    0.0000 H       1  UNL1        0.0235
     91 H           5.3199   -4.1152    0.0000 H       1  UNL1        0.0290
     92 H           5.7137   -4.8096    0.0000 H       1  UNL1        0.0290
     93 H           8.6444   -0.8551    0.0000 H       1  UNL1        0.0238
     94 H           9.3607   -0.3494    0.0000 H       1  UNL1        0.0238
     95 H           8.8550    0.3669    0.0000 H       1  UNL1        0.0238
     96 H           5.3095    2.0751    0.0000 H       1  UNL1        0.0276
     97 H           5.7246    1.3932    0.0000 H       1  UNL1        0.0276
     98 H           8.3869    2.9716    0.0000 H       1  UNL1        0.0277
     99 H           7.9877    3.6629    0.0000 H       1  UNL1        0.0277
    100 H           8.8094   -4.8407    0.0000 H       1  UNL1        0.0236
    101 H           9.4246   -4.2159    0.0000 H       1  UNL1        0.0236
    102 H           8.7998   -3.6007    0.0000 H       1  UNL1        0.0236
    103 H           7.7767   -5.4047    0.0000 H       1  UNL1        0.0236
    104 H           8.6254   -5.6251    0.0000 H       1  UNL1        0.0236
    105 H           8.8458   -4.7764    0.0000 H       1  UNL1        0.0236
    106 H           7.2302    4.0964    0.0000 H       1  UNL1        0.0271
    107 H           6.4319    4.0902    0.0000 H       1  UNL1        0.0271
    108 H           9.8732    0.7214    0.0000 H       1  UNL1        0.2098
    109 H           5.9202    4.2420    0.0000 H       1  UNL1        0.0235
    110 H           5.0699    4.4559    0.0000 H       1  UNL1        0.0235
    111 H           4.8560    3.6055    0.0000 H       1  UNL1        0.0235
    112 H           4.8920    3.6701    0.0000 H       1  UNL1        0.0235
    113 H           4.2816    3.0406    0.0000 H       1  UNL1        0.0235
    114 H           4.9111    2.4302    0.0000 H       1  UNL1        0.0235
    115 H           6.0010   -5.6545    0.0000 H       1  UNL1        0.0938
    116 H           6.0010   -7.8945    0.0000 H       1  UNL1        0.0671
    117 H          10.3715    1.9051    0.0000 H       1  UNL1        0.1097
    118 H           4.5981   -8.0845    0.0000 H       1  UNL1        0.0648
    119 H           4.2690   -5.6545    0.0000 H       1  UNL1        0.0741
    120 H           3.7320   -6.9645    0.0000 H       1  UNL1        0.0652
    121 H          10.3456    4.1449    0.0000 H       1  UNL1        0.0825
    122 H           7.4040   -7.4645    0.0000 H       1  UNL1        0.2101
    123 H          11.7463    4.3511    0.0000 H       1  UNL1        0.0659
    124 H          12.3151    1.9649    0.0000 H       1  UNL1        0.0588
    125 H          12.7056    2.6598    0.0000 H       1  UNL1        0.0588
    126 H          12.6252    3.2412    0.0000 H       1  UNL1        0.0643
    127 H           5.6720   -9.0845    0.0000 H       1  UNL1        0.2100
    128 H           3.4030   -8.3945    0.0000 H       1  UNL1        0.2100
    129 H          11.7347    5.3511    0.0000 H       1  UNL1        0.2101
    130 H          13.4854    3.7512    0.0000 H       1  UNL1        0.2100
    131 H           2.0000   -5.9645    0.0000 H       1  UNL1        0.2951
    132 H           8.0644    5.1886    0.0000 H       1  UNL1        0.0689
    133 H           9.1195    6.8209    0.0000 H       1  UNL1        0.0626
    134 H           6.8614    5.8648    0.0000 H       1  UNL1        0.0661
    135 H           8.2362    8.3108    0.0000 H       1  UNL1        0.0625
    136 H           6.8240    9.1045    0.0000 H       1  UNL1        0.0655
    137 H           5.0920    9.0845    0.0000 H       1  UNL1        0.2923
    138 H           4.5543    7.4951    0.0000 H       1  UNL1        0.0660
    139 H           3.7101    7.2584    0.0000 H       1  UNL1        0.0660
    140 H           3.9468    6.4141    0.0000 H       1  UNL1        0.0660
@<TRIPOS>BOND
     1    34     1    1
     2    48     1    1
     3    32     2    1
     4     2   108    1
     5     3    45    1
     6    50     3    1
     7     4    45    2
     8     5    48    1
     9     5    52    1
    10     6    50    1
    11     6    56    1
    12    49     7    1
    13     7   122    1
    14    51     8    1
    15     8   127    1
    16    54     9    1
    17     9    59    1
    18    53    10    1
    19    10   128    1
    20    55    11    1
    21    11   129    1
    22    57    12    1
    23    12   130    1
    24    13    58    1
    25    13   131    1
    26    14    58    2
    27    15    59    2
    28    16    65    1
    29    16    68    1
    30    17    67    1
    31    17   137    1
    32    18    19    1
    33    18    21    1
    34    18    23    1
    35    18    33    1
    36    19    20    1
    37    19    28    1
    38    19    69    1
    39    20    22    1
    40    20    29    1
    41    20    36    1
    42    21    25    1
    43    21    30    1
    44    21    38    1
    45    22    24    1
    46    22    26    1
    47    22    70    1
    48    23    24    1
    49    23    71    1
    50    23    72    1
    51    24    73    1
    52    24    74    1
    53    25    27    1
    54    25    35    2
    55    26    34    1
    56    26    42    1
    57    26    43    1
    58    27    31    1
    59    27    39    1
    60    27    75    1
    61    28    35    1
    62    28    76    1
    63    28    77    1
    64    29    37    1
    65    29    78    1
    66    29    79    1
    67    30    32    1
    68    30    80    1
    69    30    81    1
    70    31    32    1
    71    31    40    1
    72    31    45    1
    73    32    82    1
    74    33    83    1
    75    33    84    1
    76    33    85    1
    77    34    37    1
    78    34    86    1
    79    35    87    1
    80    36    88    1
    81    36    89    1
    82    36    90    1
    83    37    91    1
    84    37    92    1
    85    38    93    1
    86    38    94    1
    87    38    95    1
    88    39    41    1
    89    39    96    1
    90    39    97    1
    91    40    44    1
    92    40    98    1
    93    40    99    1
    94    41    44    1
    95    41    46    1
    96    41    47    1
    97    42   100    1
    98    42   101    1
    99    42   102    1
   100    43   103    1
   101    43   104    1
   102    43   105    1
   103    44   106    1
   104    44   107    1
   105    46   109    1
   106    46   110    1
   107    46   111    1
   108    47   112    1
   109    47   113    1
   110    47   114    1
   111    48    49    1
   112    48   115    1
   113    49    51    1
   114    49   116    1
   115    50    54    1
   116    50   117    1
   117    51    53    1
   118    51   118    1
   119    52    53    1
   120    52    58    1
   121    52   119    1
   122    53   120    1
   123    54    55    1
   124    54   121    1
   125    55    57    1
   126    55   123    1
   127    56    57    1
   128    56   124    1
   129    56   125    1
   130    57   126    1
   131    59    60    1
   132    60    61    2
   133    60   132    1
   134    61    62    1
   135    61   133    1
   136    62    63   ar
   137    62    64   ar
   138    63    65   ar
   139    63   134    1
   140    64    66   ar
   141    64   135    1
   142    65    67   ar
   143    66    67   ar
   144    66   136    1
   145    68   138    1
   146    68   139    1
   147    68   140    1
