@<TRIPOS>MOLECULE
IMPHY004467
 30 29 0 0 0
SMALL
GASTEIGER

@<TRIPOS>ATOM
      1 O           2.5369   -0.8660    0.0000 O.3     1  UNL1       -0.3848
      2 O           8.5991   -0.3660    0.0000 O.3     1  UNL1       -0.3907
      3 C           3.4030   -0.3660    0.0000 C.3     1  UNL1        0.0814
      4 C           4.2690    0.1340    0.0000 C.3     1  UNL1       -0.0172
      5 C           5.1350   -0.3660    0.0000 C.3     1  UNL1       -0.0316
      6 C           3.9030   -1.2320    0.0000 C.3     1  UNL1       -0.0324
      7 C           6.0010    0.1340    0.0000 C.2     1  UNL1       -0.0828
      8 C           2.9030    0.5000    0.0000 C.2     1  UNL1       -0.0602
      9 C           6.8671   -0.3660    0.0000 C.2     1  UNL1       -0.0515
     10 C           7.7331    0.1340    0.0000 C.3     1  UNL1        0.0650
     11 C           6.8671   -1.3660    0.0000 C.3     1  UNL1       -0.0416
     12 C           3.4030    1.3660    0.0000 C.2     1  UNL1       -0.1000
     13 H           4.6675    0.6089    0.0000 H       1  UNL1        0.0299
     14 H           3.8705    0.6089    0.0000 H       1  UNL1        0.0299
     15 H           4.7365   -0.8410    0.0000 H       1  UNL1        0.0308
     16 H           5.5335   -0.8410    0.0000 H       1  UNL1        0.0308
     17 H           3.3660   -1.5420    0.0000 H       1  UNL1        0.0260
     18 H           4.2130   -1.7690    0.0000 H       1  UNL1        0.0260
     19 H           4.4399   -0.9221    0.0000 H       1  UNL1        0.0260
     20 H           6.0010    0.7540    0.0000 H       1  UNL1        0.0572
     21 H           2.2830    0.5000    0.0000 H       1  UNL1        0.0594
     22 H           2.0000   -0.5560    0.0000 H       1  UNL1        0.2106
     23 H           8.1316    0.6089    0.0000 H       1  UNL1        0.0604
     24 H           7.3346    0.6089    0.0000 H       1  UNL1        0.0604
     25 H           6.2471   -1.3660    0.0000 H       1  UNL1        0.0275
     26 H           6.8671   -1.9860    0.0000 H       1  UNL1        0.0275
     27 H           7.4871   -1.3660    0.0000 H       1  UNL1        0.0275
     28 H           4.0230    1.3660    0.0000 H       1  UNL1        0.0533
     29 H           3.0930    1.9030    0.0000 H       1  UNL1        0.0533
     30 H           9.1360   -0.0560    0.0000 H       1  UNL1        0.2098
@<TRIPOS>BOND
     1     1     3    1
     2     1    22    1
     3     2    10    1
     4     2    30    1
     5     3     4    1
     6     3     6    1
     7     3     8    1
     8     4     5    1
     9     4    13    1
    10     4    14    1
    11     5     7    1
    12     5    15    1
    13     5    16    1
    14     6    17    1
    15     6    18    1
    16     6    19    1
    17     7     9    2
    18     7    20    1
    19     8    12    2
    20     8    21    1
    21     9    10    1
    22     9    11    1
    23    10    23    1
    24    10    24    1
    25    11    25    1
    26    11    26    1
    27    11    27    1
    28    12    28    1
    29    12    29    1
