@<TRIPOS>MOLECULE
IMPHY015099
 59 62 0 0 0
SMALL
GASTEIGER

@<TRIPOS>ATOM
      1 O           5.1350   -2.1246    0.0000 O.3     1  UNL1       -0.3313
      2 O           6.8671   -2.1246    0.0000 O.3     1  UNL1       -0.4606
      3 O           5.1350   -5.1246    0.0000 O.3     1  UNL1       -0.3864
      4 O           3.4030   -4.1246    0.0000 O.3     1  UNL1       -0.3865
      5 O           6.8671   -4.1246    0.0000 O.3     1  UNL1       -0.3829
      6 O           2.5369   -2.6246    0.0000 O.3     1  UNL1       -0.3924
      7 O           8.6230    0.9379    0.0000 O.2     1  UNL1       -0.4544
      8 O           5.1208    0.9546    0.0000 O.3     1  UNL1       -0.5058
      9 O           6.0308    2.4479    0.0000 O.2     1  UNL1       -0.2869
     10 O          10.3705    4.9312    0.0000 O.3     1  UNL1       -0.4913
     11 O          12.0910    1.9246    0.0000 O.3     1  UNL1       -0.4913
     12 O          12.0987    3.9246    0.0000 O.3     1  UNL1       -0.5009
     13 C           5.1350   -4.1246    0.0000 C.3     1  UNL1        0.1152
     14 C           4.2690   -3.6246    0.0000 C.3     1  UNL1        0.1120
     15 C           6.0010   -3.6246    0.0000 C.3     1  UNL1        0.1454
     16 C           4.2690   -2.6246    0.0000 C.3     1  UNL1        0.1140
     17 C           6.0010   -2.6246    0.0000 C.3     1  UNL1        0.2308
     18 C           3.4030   -2.1246    0.0000 C.3     1  UNL1        0.0731
     19 C           6.8671   -1.1246    0.0000 C.ar    1  UNL1        0.1310
     20 C           7.7671   -0.6003    0.0000 C.ar    1  UNL1        0.0235
     21 C           5.9670   -0.6003    0.0000 C.ar    1  UNL1        0.0226
     22 C           7.7551    0.4413    0.0000 C.ar    1  UNL1        0.1462
     23 C           6.8910    0.9446    0.0000 C.ar    1  UNL1        0.1055
     24 C           5.9790    0.4413    0.0000 C.ar    1  UNL1        0.1347
     25 C           6.8948    1.9446    0.0000 C.ar    1  UNL1        0.1966
     26 C           8.6269    1.9379    0.0000 C.ar    1  UNL1        0.1395
     27 C           7.7628    2.4413    0.0000 C.ar    1  UNL1        0.0288
     28 C           9.4948    2.4346    0.0000 C.ar    1  UNL1        0.0245
     29 C          10.3589    1.9313    0.0000 C.ar    1  UNL1       -0.0054
     30 C           9.4987    3.4346    0.0000 C.ar    1  UNL1       -0.0054
     31 C          10.3666    3.9312    0.0000 C.ar    1  UNL1        0.1656
     32 C          11.2269    2.4279    0.0000 C.ar    1  UNL1        0.1656
     33 C          11.2307    3.4279    0.0000 C.ar    1  UNL1        0.2010
     34 C           9.5064    5.4346    0.0000 C.3     1  UNL1        0.0790
     35 C          12.0871    0.9246    0.0000 C.3     1  UNL1        0.0790
     36 H           5.6720   -4.4346    0.0000 H       1  UNL1        0.0648
     37 H           3.7320   -3.3146    0.0000 H       1  UNL1        0.0647
     38 H           6.5380   -3.3146    0.0000 H       1  UNL1        0.0683
     39 H           4.2690   -2.0046    0.0000 H       1  UNL1        0.0647
     40 H           6.0010   -2.0046    0.0000 H       1  UNL1        0.1084
     41 H           3.8015   -1.6496    0.0000 H       1  UNL1        0.0584
     42 H           3.0044   -1.6496    0.0000 H       1  UNL1        0.0584
     43 H           4.5981   -5.4346    0.0000 H       1  UNL1        0.2100
     44 H           3.4030   -4.7446    0.0000 H       1  UNL1        0.2100
     45 H           6.8671   -4.7446    0.0000 H       1  UNL1        0.2102
     46 H           2.0000   -2.3146    0.0000 H       1  UNL1        0.2095
     47 H           8.3064   -0.9061    0.0000 H       1  UNL1        0.0691
     48 H           5.4277   -0.9061    0.0000 H       1  UNL1        0.0691
     49 H           7.7652    3.0613    0.0000 H       1  UNL1        0.0693
     50 H           4.5792    0.6529    0.0000 H       1  UNL1        0.2922
     51 H          10.3565    1.3113    0.0000 H       1  UNL1        0.0662
     52 H           8.9630    3.7466    0.0000 H       1  UNL1        0.0662
     53 H          12.1011    4.5446    0.0000 H       1  UNL1        0.2924
     54 H           9.8185    5.9703    0.0000 H       1  UNL1        0.0660
     55 H           8.9707    5.7466    0.0000 H       1  UNL1        0.0660
     56 H           9.1943    4.8988    0.0000 H       1  UNL1        0.0660
     57 H          11.4671    0.9270    0.0000 H       1  UNL1        0.0660
     58 H          12.0847    0.3046    0.0000 H       1  UNL1        0.0660
     59 H          12.7071    0.9222    0.0000 H       1  UNL1        0.0660
@<TRIPOS>BOND
     1     1    16    1
     2     1    17    1
     3     2    17    1
     4     2    19    1
     5     3    13    1
     6     3    43    1
     7     4    14    1
     8     4    44    1
     9     5    15    1
    10     5    45    1
    11     6    18    1
    12     6    46    1
    13     7    22   ar
    14     7    26   ar
    15     8    24    1
    16     8    50    1
    17     9    25    2
    18    10    31    1
    19    10    34    1
    20    11    32    1
    21    11    35    1
    22    12    33    1
    23    12    53    1
    24    13    14    1
    25    13    15    1
    26    13    36    1
    27    14    16    1
    28    14    37    1
    29    15    17    1
    30    15    38    1
    31    16    18    1
    32    16    39    1
    33    17    40    1
    34    18    41    1
    35    18    42    1
    36    19    20   ar
    37    19    21   ar
    38    20    22   ar
    39    20    47    1
    40    21    24   ar
    41    21    48    1
    42    22    23   ar
    43    23    24   ar
    44    23    25   ar
    45    25    27   ar
    46    26    27   ar
    47    26    28    1
    48    27    49    1
    49    28    29   ar
    50    28    30   ar
    51    29    32   ar
    52    29    51    1
    53    30    31   ar
    54    30    52    1
    55    31    33   ar
    56    32    33   ar
    57    34    54    1
    58    34    55    1
    59    34    56    1
    60    35    57    1
    61    35    58    1
    62    35    59    1
