@<TRIPOS>MOLECULE
IMPHY012952
 31 32 0 0 0
SMALL
GASTEIGER

@<TRIPOS>ATOM
      1 O           6.0010   -0.5950    0.0000 O.3     1  UNL1       -0.5058
      2 O           2.5369   -0.5950    0.0000 O.3     1  UNL1       -0.5058
      3 O           4.2690   -3.5950    0.0000 O.3     1  UNL1       -0.5065
      4 O           3.4030    0.9050    0.0000 O.2     1  UNL1       -0.2870
      5 C           4.2690   -0.5950    0.0000 C.ar    1  UNL1        0.1045
      6 C           5.1350   -1.0950    0.0000 C.ar    1  UNL1        0.1346
      7 C           3.4030   -1.0950    0.0000 C.ar    1  UNL1        0.1346
      8 C           4.2690    0.4050    0.0000 C.2     1  UNL1        0.1931
      9 C           5.1350   -2.0950    0.0000 C.ar    1  UNL1        0.0223
     10 C           3.4030   -2.0950    0.0000 C.ar    1  UNL1        0.0223
     11 C           4.2690   -2.5950    0.0000 C.ar    1  UNL1        0.1238
     12 C           6.0010    2.4050    0.0000 C.ar    1  UNL1       -0.0249
     13 C           5.1350    0.9050    0.0000 C.2     1  UNL1       -0.0135
     14 C           5.1350    1.9050    0.0000 C.2     1  UNL1       -0.0510
     15 C           6.8671    1.9050    0.0000 C.ar    1  UNL1       -0.0546
     16 C           6.0010    3.4050    0.0000 C.ar    1  UNL1       -0.0546
     17 C           7.7331    2.4050    0.0000 C.ar    1  UNL1       -0.0612
     18 C           6.8671    3.9050    0.0000 C.ar    1  UNL1       -0.0612
     19 C           7.7331    3.4050    0.0000 C.ar    1  UNL1       -0.0617
     20 H           5.6720   -2.4050    0.0000 H       1  UNL1        0.0691
     21 H           2.8660   -2.4050    0.0000 H       1  UNL1        0.0691
     22 H           5.6720    0.5950    0.0000 H       1  UNL1        0.0656
     23 H           4.5981    2.2150    0.0000 H       1  UNL1        0.0625
     24 H           6.8671    1.2850    0.0000 H       1  UNL1        0.0623
     25 H           5.4641    3.7150    0.0000 H       1  UNL1        0.0623
     26 H           8.2700    2.0950    0.0000 H       1  UNL1        0.0618
     27 H           6.8671    4.5250    0.0000 H       1  UNL1        0.0618
     28 H           8.2700    3.7150    0.0000 H       1  UNL1        0.0618
     29 H           6.5380   -0.9050    0.0000 H       1  UNL1        0.2922
     30 H           2.0000   -0.9050    0.0000 H       1  UNL1        0.2922
     31 H           3.7320   -3.9050    0.0000 H       1  UNL1        0.2921
@<TRIPOS>BOND
     1     1     6    1
     2     1    29    1
     3     2     7    1
     4     2    30    1
     5     3    11    1
     6     3    31    1
     7     4     8    2
     8     5     6   ar
     9     5     7   ar
    10     5     8    1
    11     6     9   ar
    12     7    10   ar
    13     8    13    1
    14     9    11   ar
    15     9    20    1
    16    10    11   ar
    17    10    21    1
    18    12    14    1
    19    12    15   ar
    20    12    16   ar
    21    13    14    2
    22    13    22    1
    23    14    23    1
    24    15    17   ar
    25    15    24    1
    26    16    18   ar
    27    16    25    1
    28    17    19   ar
    29    17    26    1
    30    18    19   ar
    31    18    27    1
    32    19    28    1
