@<TRIPOS>MOLECULE
IMPHY011063
 39 40 0 0 0
SMALL
GASTEIGER

@<TRIPOS>ATOM
      1 C           6.3189    0.5582    0.0000 C.3     1  UNL1       -0.0219
      2 C           5.3792   -0.7512    0.0000 C.2     1  UNL1       -0.0666
      3 C           5.3742    0.2488    0.0000 C.2     1  UNL1       -0.0632
      4 C           6.9065   -0.2436    0.0000 C.3     1  UNL1       -0.0430
      5 C           6.3269   -1.0512    0.0000 C.3     1  UNL1       -0.0307
      6 C           4.6005   -1.3786    0.0000 C.3     1  UNL1       -0.0190
      7 C           4.5893    0.8684    0.0000 C.3     1  UNL1       -0.0098
      8 C           3.6244   -1.1609    0.0000 C.3     1  UNL1       -0.0282
      9 C           3.6155    0.6410    0.0000 C.2     1  UNL1       -0.0669
     10 C           6.6248    1.5103    0.0000 C.3     1  UNL1       -0.0587
     11 C           3.1861   -0.2621    0.0000 C.2     1  UNL1       -0.0837
     12 C           2.9881    1.4197    0.0000 C.3     1  UNL1       -0.0253
     13 C           4.8278   -2.3524    0.0000 C.3     1  UNL1       -0.0584
     14 C           2.0000    1.2657    0.0000 C.3     1  UNL1       -0.0589
     15 C           3.3488    2.3524    0.0000 C.3     1  UNL1       -0.0589
     16 H           5.7162    1.1576    0.0000 H       1  UNL1        0.0343
     17 H           7.3694   -0.6560    0.0000 H       1  UNL1        0.0274
     18 H           7.3653    0.1734    0.0000 H       1  UNL1        0.0274
     19 H           6.0787   -1.6194    0.0000 H       1  UNL1        0.0310
     20 H           6.8658   -1.3578    0.0000 H       1  UNL1        0.0310
     21 H           5.4042   -1.6553    0.0000 H       1  UNL1        0.0346
     22 H           5.0721    1.2574    0.0000 H       1  UNL1        0.0355
     23 H           4.3175    1.4256    0.0000 H       1  UNL1        0.0355
     24 H           3.0207   -1.3019    0.0000 H       1  UNL1        0.0313
     25 H           3.6275   -1.7809    0.0000 H       1  UNL1        0.0313
     26 H           7.2151    1.3206    0.0000 H       1  UNL1        0.0235
     27 H           6.8145    2.1006    0.0000 H       1  UNL1        0.0235
     28 H           6.0345    1.7000    0.0000 H       1  UNL1        0.0235
     29 H           2.5661   -0.2652    0.0000 H       1  UNL1        0.0572
     30 H           2.7644    0.8414    0.0000 H       1  UNL1        0.0340
     31 H           4.2241   -2.4934    0.0000 H       1  UNL1        0.0236
     32 H           4.9688   -2.9562    0.0000 H       1  UNL1        0.0236
     33 H           5.4316   -2.2114    0.0000 H       1  UNL1        0.0236
     34 H           1.9045    1.8783    0.0000 H       1  UNL1        0.0235
     35 H           1.3874    1.1703    0.0000 H       1  UNL1        0.0235
     36 H           2.0955    0.6531    0.0000 H       1  UNL1        0.0235
     37 H           3.9270    2.1288    0.0000 H       1  UNL1        0.0235
     38 H           3.5724    2.9306    0.0000 H       1  UNL1        0.0235
     39 H           2.7705    2.5760    0.0000 H       1  UNL1        0.0235
@<TRIPOS>BOND
     1     1     3    1
     2     1     4    1
     3     1    10    1
     4     1    16    1
     5     2     3    2
     6     2     5    1
     7     2     6    1
     8     3     7    1
     9     4     5    1
    10     4    17    1
    11     4    18    1
    12     5    19    1
    13     5    20    1
    14     6     8    1
    15     6    13    1
    16     6    21    1
    17     7     9    1
    18     7    22    1
    19     7    23    1
    20     8    11    1
    21     8    24    1
    22     8    25    1
    23     9    11    2
    24     9    12    1
    25    10    26    1
    26    10    27    1
    27    10    28    1
    28    11    29    1
    29    12    14    1
    30    12    15    1
    31    12    30    1
    32    13    31    1
    33    13    32    1
    34    13    33    1
    35    14    34    1
    36    14    35    1
    37    14    36    1
    38    15    37    1
    39    15    38    1
    40    15    39    1
