@<TRIPOS>MOLECULE
IMPHY006555
 27 29 0 0 0
SMALL
GASTEIGER

@<TRIPOS>ATOM
      1 O           4.6660   -2.0000    0.0000 O.2     1  UNL1       -0.2865
      2 N           4.6660    1.0000    0.0000 N.ar    1  UNL1       -0.3427
      3 C           5.5321    0.5000    0.0000 C.ar    1  UNL1        0.0529
      4 C           3.8000    0.5000    0.0000 C.ar    1  UNL1        0.0529
      5 C           5.5321   -0.5000    0.0000 C.ar    1  UNL1        0.0458
      6 C           3.8000   -0.5000    0.0000 C.ar    1  UNL1        0.0458
      7 C           4.6660   -1.0000    0.0000 C.ar    1  UNL1        0.1971
      8 C           6.4260    1.0347    0.0000 C.ar    1  UNL1       -0.0375
      9 C           2.9061    1.0347    0.0000 C.ar    1  UNL1       -0.0375
     10 C           4.6660    2.0000    0.0000 C.3     1  UNL1        0.0124
     11 C           6.4260   -1.0347    0.0000 C.ar    1  UNL1       -0.0489
     12 C           2.9061   -1.0347    0.0000 C.ar    1  UNL1       -0.0489
     13 C           2.0000    0.5208    0.0000 C.ar    1  UNL1       -0.0598
     14 C           7.3321    0.5208    0.0000 C.ar    1  UNL1       -0.0598
     15 C           7.3321   -0.5208    0.0000 C.ar    1  UNL1       -0.0610
     16 C           2.0000   -0.5208    0.0000 C.ar    1  UNL1       -0.0610
     17 H           6.4188    1.6546    0.0000 H       1  UNL1        0.0638
     18 H           2.9132    1.6546    0.0000 H       1  UNL1        0.0638
     19 H           5.2860    2.0000    0.0000 H       1  UNL1        0.0456
     20 H           4.6660    2.6200    0.0000 H       1  UNL1        0.0456
     21 H           4.0460    2.0000    0.0000 H       1  UNL1        0.0456
     22 H           6.4188   -1.6546    0.0000 H       1  UNL1        0.0625
     23 H           2.9132   -1.6546    0.0000 H       1  UNL1        0.0625
     24 H           7.8678    0.8329    0.0000 H       1  UNL1        0.0618
     25 H           1.4643    0.8329    0.0000 H       1  UNL1        0.0618
     26 H           7.8678   -0.8329    0.0000 H       1  UNL1        0.0618
     27 H           1.4643   -0.8329    0.0000 H       1  UNL1        0.0618
@<TRIPOS>BOND
     1     1     7    2
     2     2     3   ar
     3     2     4   ar
     4     2    10    1
     5     3     5   ar
     6     3     8   ar
     7     4     6   ar
     8     4     9   ar
     9     5     7   ar
    10     5    11   ar
    11     6     7   ar
    12     6    12   ar
    13     8    14   ar
    14     8    17    1
    15     9    13   ar
    16     9    18    1
    17    10    19    1
    18    10    20    1
    19    10    21    1
    20    11    15   ar
    21    11    22    1
    22    12    16   ar
    23    12    23    1
    24    13    16   ar
    25    13    25    1
    26    14    15   ar
    27    14    24    1
    28    15    26    1
    29    16    27    1
