@<TRIPOS>MOLECULE
IMPHY000906
 73 77 0 0 0
SMALL
GASTEIGER

@<TRIPOS>ATOM
      1 O           6.9245   -1.2836    0.0000 O.3     1  UNL1       -0.3313
      2 O           4.2884    1.1932    0.0000 O.3     1  UNL1       -0.3313
      3 O           8.6565   -1.2836    0.0000 O.3     1  UNL1       -0.4515
      4 O           6.0203    1.2133    0.0000 O.3     1  UNL1       -0.4598
      5 O           6.9245   -4.2836    0.0000 O.3     1  UNL1       -0.3864
      6 O           5.1924   -3.2836    0.0000 O.3     1  UNL1       -0.3865
      7 O           4.2537    4.1931    0.0000 O.3     1  UNL1       -0.3864
      8 O           2.5333    3.1731    0.0000 O.3     1  UNL1       -0.3865
      9 O           8.6565   -3.2836    0.0000 O.3     1  UNL1       -0.3829
     10 O           5.9972    3.2131    0.0000 O.3     1  UNL1       -0.3829
     11 O           4.3264   -1.7836    0.0000 O.3     1  UNL1       -0.3924
     12 O           2.5680    0.1733    0.0000 O.3     1  UNL1       -0.3924
     13 O           9.5226    1.2164    0.0000 O.2     1  UNL1       -0.1997
     14 O           7.7784    4.2857    0.0000 O.3     1  UNL1       -0.5063
     15 O          12.9867   -1.7836    0.0000 O.3     1  UNL1       -0.5068
     16 C           6.9245   -3.2836    0.0000 C.3     1  UNL1        0.1152
     17 C           6.0584   -2.7836    0.0000 C.3     1  UNL1        0.1120
     18 C           4.2652    3.1931    0.0000 C.3     1  UNL1        0.1152
     19 C           3.4051    2.6831    0.0000 C.3     1  UNL1        0.1120
     20 C           7.7905   -2.7836    0.0000 C.3     1  UNL1        0.1454
     21 C           5.1370    2.7032    0.0000 C.3     1  UNL1        0.1454
     22 C           6.0584   -1.7836    0.0000 C.3     1  UNL1        0.1140
     23 C           3.4166    1.6832    0.0000 C.3     1  UNL1        0.1140
     24 C           7.7905   -1.7836    0.0000 C.3     1  UNL1        0.2312
     25 C           5.1486    1.7032    0.0000 C.3     1  UNL1        0.2308
     26 C           5.1924   -1.2836    0.0000 C.3     1  UNL1        0.0731
     27 C           2.5564    1.1732    0.0000 C.3     1  UNL1        0.0731
     28 C           6.8805    1.7232    0.0000 C.ar    1  UNL1        0.1437
     29 C           8.6565   -0.2836    0.0000 C.ar    1  UNL1        0.2288
     30 C           7.7905    1.2164    0.0000 C.ar    1  UNL1        0.1245
     31 C           7.7905    0.2164    0.0000 C.ar    1  UNL1        0.0093
     32 C           9.5226    0.2164    0.0000 C.ar    1  UNL1        0.4045
     33 C           8.6565    1.7164    0.0000 C.ar    1  UNL1        0.3708
     34 C           6.8725    2.7648    0.0000 C.ar    1  UNL1        0.0229
     35 C           8.6726    2.7579    0.0000 C.ar    1  UNL1        0.0847
     36 C           7.7746    3.2857    0.0000 C.ar    1  UNL1        0.1293
     37 C          10.3886   -0.2836    0.0000 C.ar    1  UNL1        0.0830
     38 C          10.3886   -1.2836    0.0000 C.ar    1  UNL1       -0.0420
     39 C          11.2546    0.2164    0.0000 C.ar    1  UNL1       -0.0420
     40 C          11.2546   -1.7836    0.0000 C.ar    1  UNL1       -0.0193
     41 C          12.1206   -0.2836    0.0000 C.ar    1  UNL1       -0.0193
     42 C          12.1206   -1.2836    0.0000 C.ar    1  UNL1        0.1169
     43 H           7.4614   -3.5936    0.0000 H       1  UNL1        0.0648
     44 H           5.5215   -2.4736    0.0000 H       1  UNL1        0.0647
     45 H           3.7248    3.4969    0.0000 H       1  UNL1        0.0648
     46 H           2.8718    2.3669    0.0000 H       1  UNL1        0.0647
     47 H           8.3274   -2.4736    0.0000 H       1  UNL1        0.0683
     48 H           5.1298    3.3231    0.0000 H       1  UNL1        0.0683
     49 H           6.0584   -1.1636    0.0000 H       1  UNL1        0.0647
     50 H           3.4238    1.0632    0.0000 H       1  UNL1        0.0647
     51 H           7.7905   -1.1636    0.0000 H       1  UNL1        0.1084
     52 H           5.6819    2.0194    0.0000 H       1  UNL1        0.1084
     53 H           5.5910   -0.8086    0.0000 H       1  UNL1        0.0584
     54 H           4.7939   -0.8086    0.0000 H       1  UNL1        0.0584
     55 H           2.3377    1.7533    0.0000 H       1  UNL1        0.0584
     56 H           1.9472    1.0585    0.0000 H       1  UNL1        0.0584
     57 H           6.3875   -4.5936    0.0000 H       1  UNL1        0.2100
     58 H           5.1924   -3.9036    0.0000 H       1  UNL1        0.2100
     59 H           3.7132    4.4968    0.0000 H       1  UNL1        0.2100
     60 H           2.0000    2.8569    0.0000 H       1  UNL1        0.2100
     61 H           8.6565   -3.9036    0.0000 H       1  UNL1        0.2102
     62 H           5.9900    3.8331    0.0000 H       1  UNL1        0.2102
     63 H           7.2536   -0.0936    0.0000 H       1  UNL1        0.0667
     64 H           3.7895   -1.4736    0.0000 H       1  UNL1        0.2095
     65 H           2.0347   -0.1429    0.0000 H       1  UNL1        0.2095
     66 H           6.3343    3.0728    0.0000 H       1  UNL1        0.0691
     67 H           9.2131    3.0617    0.0000 H       1  UNL1        0.0749
     68 H           9.8516   -1.5936    0.0000 H       1  UNL1        0.0628
     69 H          11.2546    0.8364    0.0000 H       1  UNL1        0.0628
     70 H           8.3165    4.5936    0.0000 H       1  UNL1        0.2921
     71 H          11.2546   -2.4036    0.0000 H       1  UNL1        0.0654
     72 H          12.6576    0.0264    0.0000 H       1  UNL1        0.0654
     73 H          12.9867   -2.4036    0.0000 H       1  UNL1        0.2921
@<TRIPOS>UNITY_ATOM_ATTR
13 1
charge 1
@<TRIPOS>BOND
     1     1    22    1
     2     1    24    1
     3     2    23    1
     4     2    25    1
     5    24     3    1
     6     3    29    1
     7    25     4    1
     8     4    28    1
     9    16     5    1
    10     5    57    1
    11    17     6    1
    12     6    58    1
    13    18     7    1
    14     7    59    1
    15    19     8    1
    16     8    60    1
    17    20     9    1
    18     9    61    1
    19    21    10    1
    20    10    62    1
    21    11    26    1
    22    11    64    1
    23    12    27    1
    24    12    65    1
    25    13    32   ar
    26    13    33   ar
    27    14    36    1
    28    14    70    1
    29    15    42    1
    30    15    73    1
    31    16    17    1
    32    16    20    1
    33    16    43    1
    34    17    22    1
    35    17    44    1
    36    18    19    1
    37    18    21    1
    38    18    45    1
    39    19    23    1
    40    19    46    1
    41    20    24    1
    42    20    47    1
    43    21    25    1
    44    21    48    1
    45    22    26    1
    46    22    49    1
    47    23    27    1
    48    23    50    1
    49    24    51    1
    50    25    52    1
    51    26    53    1
    52    26    54    1
    53    27    55    1
    54    27    56    1
    55    28    30   ar
    56    28    34   ar
    57    29    31   ar
    58    29    32   ar
    59    30    31   ar
    60    30    33   ar
    61    31    63    1
    62    32    37    1
    63    33    35   ar
    64    34    36   ar
    65    34    66    1
    66    35    36   ar
    67    35    67    1
    68    37    38   ar
    69    37    39   ar
    70    38    40   ar
    71    38    68    1
    72    39    41   ar
    73    39    69    1
    74    40    42   ar
    75    40    71    1
    76    41    42   ar
    77    41    72    1
