@<TRIPOS>MOLECULE
IMPHY000918
 110 112 0 0 0
SMALL
GASTEIGER

@<TRIPOS>ATOM
      1 O          12.2311    2.4683    0.0000 O.3     1  UNL1       -0.3683
      2 O          14.3002    1.7960    0.0000 O.3     1  UNL1       -0.3683
      3 O          10.2631    1.7689    0.0000 O.3     1  UNL1       -0.3892
      4 O          15.4812    0.0735    0.0000 O.3     1  UNL1       -0.3892
      5 O           6.8747    2.4892    0.0000 O.3     1  UNL1       -0.3918
      6 O          27.9590   -3.4718    0.0000 O.3     1  UNL1       -0.4542
      7 O          26.8375   -4.8567    0.0000 O.2     1  UNL1       -0.2453
      8 C          13.0401    3.0561    0.0000 C.3     1  UNL1        0.0853
      9 C          13.9912    2.7471    0.0000 C.3     1  UNL1        0.0853
     10 C          12.7311    4.0072    0.0000 C.3     1  UNL1       -0.0217
     11 C          14.8002    3.3349    0.0000 C.3     1  UNL1       -0.0217
     12 C          11.4221    3.0561    0.0000 C.3     1  UNL1        0.0850
     13 C          15.3002    1.7960    0.0000 C.3     1  UNL1        0.0850
     14 C          11.7311    4.0072    0.0000 C.3     1  UNL1       -0.0217
     15 C          15.6092    2.7471    0.0000 C.3     1  UNL1       -0.0217
     16 C          10.4710    2.7471    0.0000 C.3     1  UNL1        0.0813
     17 C          15.8880    0.9870    0.0000 C.3     1  UNL1        0.0813
     18 C           9.7279    3.4162    0.0000 C.3     1  UNL1       -0.0243
     19 C          16.8825    1.0916    0.0000 C.3     1  UNL1       -0.0244
     20 C           8.7768    3.1072    0.0000 C.3     1  UNL1       -0.0483
     21 C          17.4703    0.2825    0.0000 C.3     1  UNL1       -0.0506
     22 C           8.0337    3.7763    0.0000 C.3     1  UNL1       -0.0268
     23 C          18.4648    0.3871    0.0000 C.3     1  UNL1       -0.0530
     24 C           7.0826    3.4673    0.0000 C.3     1  UNL1        0.0553
     25 C          19.0526   -0.4220    0.0000 C.3     1  UNL1       -0.0531
     26 C           6.3395    4.1364    0.0000 C.3     1  UNL1       -0.0269
     27 C          20.0471   -0.3174    0.0000 C.3     1  UNL1       -0.0531
     28 C          20.6349   -1.1264    0.0000 C.3     1  UNL1       -0.0531
     29 C           5.3884    3.8274    0.0000 C.3     1  UNL1       -0.0507
     30 C          21.6294   -1.0219    0.0000 C.3     1  UNL1       -0.0531
     31 C           4.6453    4.4966    0.0000 C.3     1  UNL1       -0.0530
     32 C          22.2172   -1.8309    0.0000 C.3     1  UNL1       -0.0531
     33 C           3.6942    4.1876    0.0000 C.3     1  UNL1       -0.0533
     34 C          23.2117   -1.7264    0.0000 C.3     1  UNL1       -0.0530
     35 C          23.7995   -2.5354    0.0000 C.3     1  UNL1       -0.0528
     36 C           2.9511    4.8567    0.0000 C.3     1  UNL1       -0.0559
     37 C          24.7940   -2.4309    0.0000 C.3     1  UNL1       -0.0488
     38 C          25.3818   -3.2399    0.0000 C.3     1  UNL1       -0.0211
     39 C           2.0000    4.5477    0.0000 C.3     1  UNL1       -0.0653
     40 C          26.3763   -3.1354    0.0000 C.2     1  UNL1        0.0361
     41 C          26.8763   -2.2694    0.0000 C.2     1  UNL1       -0.0343
     42 C          27.8545   -2.4773    0.0000 C.3     1  UNL1        0.1195
     43 C          27.0455   -3.8785    0.0000 C.2     1  UNL1        0.3355
     44 C          28.5976   -1.8081    0.0000 C.3     1  UNL1       -0.0240
     45 H          13.1731    2.2166    0.0000 H       1  UNL1        0.0622
     46 H          13.8582    3.5866    0.0000 H       1  UNL1        0.0622
     47 H          13.3375    4.1361    0.0000 H       1  UNL1        0.0292
     48 H          12.6663    4.6238    0.0000 H       1  UNL1        0.0292
     49 H          15.2150    3.7956    0.0000 H       1  UNL1        0.0292
     50 H          14.3853    3.7956    0.0000 H       1  UNL1        0.0292
     51 H          11.2891    2.2166    0.0000 H       1  UNL1        0.0622
     52 H          14.9143    1.0387    0.0000 H       1  UNL1        0.0622
     53 H          11.7959    4.6238    0.0000 H       1  UNL1        0.0292
     54 H          11.1246    4.1361    0.0000 H       1  UNL1        0.0292
     55 H          16.1756    2.4949    0.0000 H       1  UNL1        0.0292
     56 H          15.9192    3.2840    0.0000 H       1  UNL1        0.0292
     57 H           9.8814    2.5555    0.0000 H       1  UNL1        0.0619
     58 H          16.2524    0.4854    0.0000 H       1  UNL1        0.0619
     59 H          10.2164    3.7979    0.0000 H       1  UNL1        0.0291
     60 H           9.4368    3.9636    0.0000 H       1  UNL1        0.0291
     61 H          17.4397    1.3633    0.0000 H       1  UNL1        0.0291
     62 H          16.7116    1.6875    0.0000 H       1  UNL1        0.0291
     63 H           8.2882    2.7255    0.0000 H       1  UNL1        0.0267
     64 H           9.0679    2.5598    0.0000 H       1  UNL1        0.0267
     65 H          16.9130    0.0107    0.0000 H       1  UNL1        0.0266
     66 H          17.6412   -0.3135    0.0000 H       1  UNL1        0.0266
     67 H           9.6734    1.5774    0.0000 H       1  UNL1        0.2099
     68 H          15.8456   -0.4281    0.0000 H       1  UNL1        0.2099
     69 H           8.5222    4.1580    0.0000 H       1  UNL1        0.0290
     70 H           7.7426    4.3238    0.0000 H       1  UNL1        0.0290
     71 H          19.0220    0.6588    0.0000 H       1  UNL1        0.0265
     72 H          18.2939    0.9830    0.0000 H       1  UNL1        0.0265
     73 H           6.4930    3.2757    0.0000 H       1  UNL1        0.0593
     74 H          18.4953   -0.6937    0.0000 H       1  UNL1        0.0265
     75 H          19.2235   -1.0179    0.0000 H       1  UNL1        0.0265
     76 H           6.8280    4.5182    0.0000 H       1  UNL1        0.0290
     77 H           6.0484    4.6839    0.0000 H       1  UNL1        0.0290
     78 H          20.6043   -0.0456    0.0000 H       1  UNL1        0.0265
     79 H          19.8762    0.2786    0.0000 H       1  UNL1        0.0265
     80 H          20.0776   -1.3982    0.0000 H       1  UNL1        0.0265
     81 H          20.8058   -1.7224    0.0000 H       1  UNL1        0.0265
     82 H           4.8998    3.4457    0.0000 H       1  UNL1        0.0266
     83 H           5.6795    3.2800    0.0000 H       1  UNL1        0.0266
     84 H          22.1867   -0.7501    0.0000 H       1  UNL1        0.0265
     85 H          21.4585   -0.4259    0.0000 H       1  UNL1        0.0265
     86 H           6.2850    2.2976    0.0000 H       1  UNL1        0.2098
     87 H           5.1338    4.8783    0.0000 H       1  UNL1        0.0265
     88 H           4.3542    5.0440    0.0000 H       1  UNL1        0.0265
     89 H          21.6599   -2.1027    0.0000 H       1  UNL1        0.0265
     90 H          22.3881   -2.4269    0.0000 H       1  UNL1        0.0265
     91 H           3.2056    3.8058    0.0000 H       1  UNL1        0.0265
     92 H           3.9853    3.6401    0.0000 H       1  UNL1        0.0265
     93 H          23.7690   -1.4546    0.0000 H       1  UNL1        0.0265
     94 H          23.0408   -1.1304    0.0000 H       1  UNL1        0.0265
     95 H          23.2422   -2.8072    0.0000 H       1  UNL1        0.0265
     96 H          23.9704   -3.1314    0.0000 H       1  UNL1        0.0265
     97 H           3.4396    5.2384    0.0000 H       1  UNL1        0.0263
     98 H           2.6600    5.4041    0.0000 H       1  UNL1        0.0263
     99 H          25.3513   -2.1591    0.0000 H       1  UNL1        0.0268
    100 H          24.6231   -1.8349    0.0000 H       1  UNL1        0.0268
    101 H          24.8245   -3.5117    0.0000 H       1  UNL1        0.0315
    102 H          25.5527   -3.8359    0.0000 H       1  UNL1        0.0315
    103 H           1.8084    5.1373    0.0000 H       1  UNL1        0.0230
    104 H           1.4103    4.3561    0.0000 H       1  UNL1        0.0230
    105 H           2.1916    3.9580    0.0000 H       1  UNL1        0.0230
    106 H          26.6241   -1.7030    0.0000 H       1  UNL1        0.0613
    107 H          28.4333   -2.6995    0.0000 H       1  UNL1        0.0777
    108 H          29.0125   -2.2689    0.0000 H       1  UNL1        0.0268
    109 H          29.0584   -1.3933    0.0000 H       1  UNL1        0.0268
    110 H          28.1828   -1.3474    0.0000 H       1  UNL1        0.0268
@<TRIPOS>BOND
     1     1     8    1
     2     1    12    1
     3     2     9    1
     4     2    13    1
     5    16     3    1
     6     3    67    1
     7    17     4    1
     8     4    68    1
     9    24     5    1
    10     5    86    1
    11     6    42    1
    12     6    43    1
    13     7    43    2
    14     8     9    1
    15     8    10    1
    16     8    45    1
    17     9    11    1
    18     9    46    1
    19    10    14    1
    20    10    47    1
    21    10    48    1
    22    11    15    1
    23    11    49    1
    24    11    50    1
    25    12    14    1
    26    12    16    1
    27    12    51    1
    28    13    15    1
    29    13    17    1
    30    13    52    1
    31    14    53    1
    32    14    54    1
    33    15    55    1
    34    15    56    1
    35    16    18    1
    36    16    57    1
    37    17    19    1
    38    17    58    1
    39    18    20    1
    40    18    59    1
    41    18    60    1
    42    19    21    1
    43    19    61    1
    44    19    62    1
    45    20    22    1
    46    20    63    1
    47    20    64    1
    48    21    23    1
    49    21    65    1
    50    21    66    1
    51    22    24    1
    52    22    69    1
    53    22    70    1
    54    23    25    1
    55    23    71    1
    56    23    72    1
    57    24    26    1
    58    24    73    1
    59    25    27    1
    60    25    74    1
    61    25    75    1
    62    26    29    1
    63    26    76    1
    64    26    77    1
    65    27    28    1
    66    27    78    1
    67    27    79    1
    68    28    30    1
    69    28    80    1
    70    28    81    1
    71    29    31    1
    72    29    82    1
    73    29    83    1
    74    30    32    1
    75    30    84    1
    76    30    85    1
    77    31    33    1
    78    31    87    1
    79    31    88    1
    80    32    34    1
    81    32    89    1
    82    32    90    1
    83    33    36    1
    84    33    91    1
    85    33    92    1
    86    34    35    1
    87    34    93    1
    88    34    94    1
    89    35    37    1
    90    35    95    1
    91    35    96    1
    92    36    39    1
    93    36    97    1
    94    36    98    1
    95    37    38    1
    96    37    99    1
    97    37   100    1
    98    38    40    1
    99    38   101    1
   100    38   102    1
   101    39   103    1
   102    39   104    1
   103    39   105    1
   104    40    41    2
   105    40    43    1
   106    41    42    1
   107    41   106    1
   108    42    44    1
   109    42   107    1
   110    44   108    1
   111    44   109    1
   112    44   110    1
