@<TRIPOS>MOLECULE
IMPHY006224
 34 33 0 0 0
SMALL
GASTEIGER

@<TRIPOS>ATOM
      1 O          13.7953   -0.2500    0.0000 O.3     1  UNL1       -0.4775
      2 O           2.5369    0.2500    0.0000 O.3     1  UNL1       -0.4775
      3 O          12.9292    1.2500    0.0000 O.2     1  UNL1       -0.2458
      4 O           3.4030   -1.2500    0.0000 O.2     1  UNL1       -0.2458
      5 C          10.3312   -0.2500    0.0000 C.2     1  UNL1       -0.0502
      6 C           6.0010    0.2500    0.0000 C.2     1  UNL1       -0.0502
      7 C           9.4651    0.2500    0.0000 C.2     1  UNL1       -0.0588
      8 C           6.8671   -0.2500    0.0000 C.2     1  UNL1       -0.0588
      9 C           8.5991   -0.2500    0.0000 C.2     1  UNL1       -0.0615
     10 C           7.7331    0.2500    0.0000 C.2     1  UNL1       -0.0615
     11 C          10.3312   -1.2500    0.0000 C.3     1  UNL1       -0.0397
     12 C           6.0010    1.2500    0.0000 C.3     1  UNL1       -0.0397
     13 C          11.1972    0.2500    0.0000 C.2     1  UNL1       -0.0521
     14 C           5.1350   -0.2500    0.0000 C.2     1  UNL1       -0.0521
     15 C          12.0632   -0.2500    0.0000 C.2     1  UNL1        0.0226
     16 C           4.2690    0.2500    0.0000 C.2     1  UNL1        0.0226
     17 C          12.9292    0.2500    0.0000 C.2     1  UNL1        0.3296
     18 C           3.4030   -0.2500    0.0000 C.2     1  UNL1        0.3296
     19 H           9.4651    0.8700    0.0000 H       1  UNL1        0.0620
     20 H           6.8671   -0.8700    0.0000 H       1  UNL1        0.0620
     21 H           8.5991   -0.8700    0.0000 H       1  UNL1        0.0618
     22 H           7.7331    0.8700    0.0000 H       1  UNL1        0.0618
     23 H           9.7112   -1.2500    0.0000 H       1  UNL1        0.0278
     24 H          10.3312   -1.8700    0.0000 H       1  UNL1        0.0278
     25 H          10.9512   -1.2500    0.0000 H       1  UNL1        0.0278
     26 H           6.6210    1.2500    0.0000 H       1  UNL1        0.0278
     27 H           6.0010    1.8700    0.0000 H       1  UNL1        0.0278
     28 H           5.3810    1.2500    0.0000 H       1  UNL1        0.0278
     29 H          11.1972    0.8700    0.0000 H       1  UNL1        0.0622
     30 H           5.1350   -0.8700    0.0000 H       1  UNL1        0.0622
     31 H          12.0632   -0.8700    0.0000 H       1  UNL1        0.0689
     32 H           4.2690    0.8700    0.0000 H       1  UNL1        0.0689
     33 H          14.3322    0.0600    0.0000 H       1  UNL1        0.2954
     34 H           2.0000   -0.0600    0.0000 H       1  UNL1        0.2954
@<TRIPOS>BOND
     1     1    17    1
     2     1    33    1
     3     2    18    1
     4     2    34    1
     5     3    17    2
     6     4    18    2
     7     5     7    2
     8     5    11    1
     9     5    13    1
    10     6     8    2
    11     6    12    1
    12     6    14    1
    13     7     9    1
    14     7    19    1
    15     8    10    1
    16     8    20    1
    17     9    10    2
    18     9    21    1
    19    10    22    1
    20    11    23    1
    21    11    24    1
    22    11    25    1
    23    12    26    1
    24    12    27    1
    25    12    28    1
    26    13    15    2
    27    13    29    1
    28    14    16    2
    29    14    30    1
    30    15    17    1
    31    15    31    1
    32    16    18    1
    33    16    32    1
