@<TRIPOS>MOLECULE
IMPHY009415
 79 78 0 0 0
SMALL
GASTEIGER

@<TRIPOS>ATOM
      1 O          21.0526    0.0950    0.0000 O.3     1  UNL1       -0.4619
      2 O          20.1865   -1.4050    0.0000 O.2     1  UNL1       -0.2509
      3 O          22.7846    1.0950    0.0000 O.3     1  UNL1       -0.3861
      4 O          24.5167    0.0950    0.0000 O.3     1  UNL1       -0.3923
      5 C          10.6603    0.0950    0.0000 C.3     1  UNL1       -0.0531
      6 C          11.5263   -0.4050    0.0000 C.3     1  UNL1       -0.0531
      7 C           9.7942   -0.4050    0.0000 C.3     1  UNL1       -0.0531
      8 C          12.3923    0.0950    0.0000 C.3     1  UNL1       -0.0531
      9 C           8.9282    0.0950    0.0000 C.3     1  UNL1       -0.0531
     10 C          13.2583   -0.4050    0.0000 C.3     1  UNL1       -0.0531
     11 C           8.0622   -0.4050    0.0000 C.3     1  UNL1       -0.0531
     12 C          14.1244    0.0950    0.0000 C.3     1  UNL1       -0.0531
     13 C           7.1962    0.0950    0.0000 C.3     1  UNL1       -0.0531
     14 C          14.9904   -0.4050    0.0000 C.3     1  UNL1       -0.0531
     15 C           6.3301   -0.4050    0.0000 C.3     1  UNL1       -0.0531
     16 C          15.8564    0.0950    0.0000 C.3     1  UNL1       -0.0531
     17 C           5.4641    0.0950    0.0000 C.3     1  UNL1       -0.0531
     18 C          16.7224   -0.4050    0.0000 C.3     1  UNL1       -0.0530
     19 C           4.5981   -0.4050    0.0000 C.3     1  UNL1       -0.0531
     20 C          17.5885    0.0950    0.0000 C.3     1  UNL1       -0.0526
     21 C           3.7320    0.0950    0.0000 C.3     1  UNL1       -0.0533
     22 C          18.4545   -0.4050    0.0000 C.3     1  UNL1       -0.0430
     23 C           2.8660   -0.4050    0.0000 C.3     1  UNL1       -0.0559
     24 C          19.3205    0.0950    0.0000 C.3     1  UNL1        0.0449
     25 C           2.0000    0.0950    0.0000 C.3     1  UNL1       -0.0653
     26 C          20.1865   -0.4050    0.0000 C.2     1  UNL1        0.3072
     27 C          21.9186   -0.4050    0.0000 C.3     1  UNL1        0.1204
     28 C          22.7846    0.0950    0.0000 C.3     1  UNL1        0.1121
     29 C          23.6506   -0.4050    0.0000 C.3     1  UNL1        0.0733
     30 H          11.0588    0.5699    0.0000 H       1  UNL1        0.0265
     31 H          10.2617    0.5699    0.0000 H       1  UNL1        0.0265
     32 H          11.1278   -0.8799    0.0000 H       1  UNL1        0.0265
     33 H          11.9248   -0.8799    0.0000 H       1  UNL1        0.0265
     34 H           9.3957   -0.8799    0.0000 H       1  UNL1        0.0265
     35 H          10.1928   -0.8799    0.0000 H       1  UNL1        0.0265
     36 H          12.7908    0.5699    0.0000 H       1  UNL1        0.0265
     37 H          11.9938    0.5699    0.0000 H       1  UNL1        0.0265
     38 H           9.3267    0.5699    0.0000 H       1  UNL1        0.0265
     39 H           8.5297    0.5699    0.0000 H       1  UNL1        0.0265
     40 H          12.8598   -0.8799    0.0000 H       1  UNL1        0.0265
     41 H          13.6569   -0.8799    0.0000 H       1  UNL1        0.0265
     42 H           7.6636   -0.8799    0.0000 H       1  UNL1        0.0265
     43 H           8.4607   -0.8799    0.0000 H       1  UNL1        0.0265
     44 H          14.5229    0.5699    0.0000 H       1  UNL1        0.0265
     45 H          13.7258    0.5699    0.0000 H       1  UNL1        0.0265
     46 H           7.5947    0.5699    0.0000 H       1  UNL1        0.0265
     47 H           6.7976    0.5699    0.0000 H       1  UNL1        0.0265
     48 H          14.5919   -0.8799    0.0000 H       1  UNL1        0.0265
     49 H          15.3889   -0.8799    0.0000 H       1  UNL1        0.0265
     50 H           5.9316   -0.8799    0.0000 H       1  UNL1        0.0265
     51 H           6.7287   -0.8799    0.0000 H       1  UNL1        0.0265
     52 H          16.2549    0.5699    0.0000 H       1  UNL1        0.0265
     53 H          15.4579    0.5699    0.0000 H       1  UNL1        0.0265
     54 H           5.8626    0.5699    0.0000 H       1  UNL1        0.0265
     55 H           5.0656    0.5699    0.0000 H       1  UNL1        0.0265
     56 H          16.3239   -0.8799    0.0000 H       1  UNL1        0.0265
     57 H          17.1210   -0.8799    0.0000 H       1  UNL1        0.0265
     58 H           4.1996   -0.8799    0.0000 H       1  UNL1        0.0265
     59 H           4.9966   -0.8799    0.0000 H       1  UNL1        0.0265
     60 H          17.9870    0.5699    0.0000 H       1  UNL1        0.0265
     61 H          17.1899    0.5699    0.0000 H       1  UNL1        0.0265
     62 H           4.1306    0.5699    0.0000 H       1  UNL1        0.0265
     63 H           3.3335    0.5699    0.0000 H       1  UNL1        0.0265
     64 H          18.0560   -0.8799    0.0000 H       1  UNL1        0.0270
     65 H          18.8530   -0.8799    0.0000 H       1  UNL1        0.0270
     66 H           2.4675   -0.8799    0.0000 H       1  UNL1        0.0263
     67 H           3.2646   -0.8799    0.0000 H       1  UNL1        0.0263
     68 H          19.7190    0.5699    0.0000 H       1  UNL1        0.0377
     69 H          18.9220    0.5699    0.0000 H       1  UNL1        0.0377
     70 H           2.3100    0.6319    0.0000 H       1  UNL1        0.0230
     71 H           1.4631    0.4050    0.0000 H       1  UNL1        0.0230
     72 H           1.6900   -0.4419    0.0000 H       1  UNL1        0.0230
     73 H          21.5201   -0.8799    0.0000 H       1  UNL1        0.0724
     74 H          22.3171   -0.8799    0.0000 H       1  UNL1        0.0724
     75 H          22.0485    0.5200    0.0000 H       1  UNL1        0.0650
     76 H          23.2521   -0.8799    0.0000 H       1  UNL1        0.0584
     77 H          24.0492   -0.8799    0.0000 H       1  UNL1        0.0584
     78 H          23.3215    1.4050    0.0000 H       1  UNL1        0.2100
     79 H          25.0536   -0.2150    0.0000 H       1  UNL1        0.2095
@<TRIPOS>BOND
     1     1    26    1
     2     1    27    1
     3     2    26    2
     4     3    28    1
     5     3    78    1
     6     4    29    1
     7     4    79    1
     8     5     6    1
     9     5     7    1
    10     5    30    1
    11     5    31    1
    12     6     8    1
    13     6    32    1
    14     6    33    1
    15     7     9    1
    16     7    34    1
    17     7    35    1
    18     8    10    1
    19     8    36    1
    20     8    37    1
    21     9    11    1
    22     9    38    1
    23     9    39    1
    24    10    12    1
    25    10    40    1
    26    10    41    1
    27    11    13    1
    28    11    42    1
    29    11    43    1
    30    12    14    1
    31    12    44    1
    32    12    45    1
    33    13    15    1
    34    13    46    1
    35    13    47    1
    36    14    16    1
    37    14    48    1
    38    14    49    1
    39    15    17    1
    40    15    50    1
    41    15    51    1
    42    16    18    1
    43    16    52    1
    44    16    53    1
    45    17    19    1
    46    17    54    1
    47    17    55    1
    48    18    20    1
    49    18    56    1
    50    18    57    1
    51    19    21    1
    52    19    58    1
    53    19    59    1
    54    20    22    1
    55    20    60    1
    56    20    61    1
    57    21    23    1
    58    21    62    1
    59    21    63    1
    60    22    24    1
    61    22    64    1
    62    22    65    1
    63    23    25    1
    64    23    66    1
    65    23    67    1
    66    24    26    1
    67    24    68    1
    68    24    69    1
    69    25    70    1
    70    25    71    1
    71    25    72    1
    72    27    28    1
    73    27    73    1
    74    27    74    1
    75    28    29    1
    76    28    75    1
    77    29    76    1
    78    29    77    1
