@<TRIPOS>MOLECULE
IMPHY005724
 82 86 0 0 0
SMALL
GASTEIGER

@<TRIPOS>ATOM
      1 O          11.9155    1.4754    0.0000 O.3     1  UNL1       -0.3888
      2 O           2.0000   -1.9012    0.0000 O.2     1  UNL1       -0.2968
      3 C           7.3931    0.1511    0.0000 C.3     1  UNL1       -0.0231
      4 C           6.5271   -0.3489    0.0000 C.3     1  UNL1       -0.0231
      5 C           7.3931    1.1511    0.0000 C.3     1  UNL1       -0.0294
      6 C           8.2870    1.6858    0.0000 C.3     1  UNL1       -0.0255
      7 C           5.6610    0.1511    0.0000 C.3     1  UNL1       -0.0294
      8 C           4.7510   -0.3557    0.0000 C.3     1  UNL1       -0.0246
      9 C           9.1931    1.1719    0.0000 C.3     1  UNL1       -0.0299
     10 C           8.2870   -0.3835    0.0000 C.3     1  UNL1       -0.0466
     11 C           6.5271    1.6511    0.0000 C.3     1  UNL1       -0.0489
     12 C           5.6610    1.1511    0.0000 C.3     1  UNL1       -0.0489
     13 C           4.7430   -1.3973    0.0000 C.3     1  UNL1       -0.0235
     14 C           6.5431   -1.3904    0.0000 C.3     1  UNL1       -0.0466
     15 C           9.1931    0.1303    0.0000 C.3     1  UNL1       -0.0488
     16 C           9.9554    1.8727    0.0000 C.3     1  UNL1       -0.0093
     17 C           8.4971    2.6997    0.0000 C.3     1  UNL1       -0.0467
     18 C           5.6451   -1.9181    0.0000 C.3     1  UNL1       -0.0483
     19 C           7.7352   -0.7885    0.0000 C.3     1  UNL1       -0.0588
     20 C           9.5262    2.8150    0.0000 C.3     1  UNL1       -0.0468
     21 C           7.1698   -1.1149    0.0000 C.3     1  UNL1       -0.0588
     22 C           3.8242    0.2084    0.0000 C.3     1  UNL1       -0.0404
     23 C           3.8076   -1.9470    0.0000 C.3     1  UNL1        0.0267
     24 C           7.4172    2.1791    0.0000 C.3     1  UNL1       -0.0590
     25 C           4.7587    0.6442    0.0000 C.3     1  UNL1       -0.0590
     26 C          10.9355    1.6740    0.0000 C.3     1  UNL1        0.0636
     27 C           2.8763   -0.3196    0.0000 C.3     1  UNL1        0.0069
     28 C           2.8680   -1.4046    0.0000 C.2     1  UNL1        0.1392
     29 C           3.3109   -2.8150    0.0000 C.3     1  UNL1       -0.0528
     30 C           4.3109   -2.8111    0.0000 C.3     1  UNL1       -0.0528
     31 C          11.1341    2.6541    0.0000 C.3     1  UNL1       -0.0361
     32 C          10.7368    0.6940    0.0000 C.3     1  UNL1       -0.0361
     33 H           8.1325    0.7318    0.0000 H       1  UNL1        0.0312
     34 H           6.3972    0.5761    0.0000 H       1  UNL1        0.0312
     35 H           9.9714    0.8302    0.0000 H       1  UNL1        0.0310
     36 H           7.8824   -0.8533    0.0000 H       1  UNL1        0.0271
     37 H           8.6806   -0.8626    0.0000 H       1  UNL1        0.0271
     38 H           6.9256    2.1261    0.0000 H       1  UNL1        0.0268
     39 H           6.1285    2.1261    0.0000 H       1  UNL1        0.0268
     40 H           5.4490    1.7337    0.0000 H       1  UNL1        0.0268
     41 H           5.0504    1.0435    0.0000 H       1  UNL1        0.0268
     42 H           4.7463   -2.2473    0.0000 H       1  UNL1        0.0315
     43 H           6.7612   -1.9708    0.0000 H       1  UNL1        0.0271
     44 H           7.1523   -1.2749    0.0000 H       1  UNL1        0.0271
     45 H           9.4022   -0.4534    0.0000 H       1  UNL1        0.0268
     46 H           9.8040    0.2364    0.0000 H       1  UNL1        0.0268
     47 H          10.4844    2.5381    0.0000 H       1  UNL1        0.0331
     48 H           8.4932    3.3197    0.0000 H       1  UNL1        0.0271
     49 H           7.8802    2.7610    0.0000 H       1  UNL1        0.0271
     50 H           5.2478   -2.3941    0.0000 H       1  UNL1        0.0269
     51 H           6.0460   -2.3910    0.0000 H       1  UNL1        0.0269
     52 H           7.1526   -1.0006    0.0000 H       1  UNL1        0.0235
     53 H           7.9473   -1.3711    0.0000 H       1  UNL1        0.0235
     54 H           8.3178   -0.5764    0.0000 H       1  UNL1        0.0235
     55 H          10.1143    3.0113    0.0000 H       1  UNL1        0.0269
     56 H           9.3928    3.4205    0.0000 H       1  UNL1        0.0269
     57 H           6.6949   -1.5134    0.0000 H       1  UNL1        0.0235
     58 H           7.5684   -1.5899    0.0000 H       1  UNL1        0.0235
     59 H           7.6448   -0.7164    0.0000 H       1  UNL1        0.0235
     60 H           4.2324    0.6750    0.0000 H       1  UNL1        0.0275
     61 H           3.4343    0.6904    0.0000 H       1  UNL1        0.0275
     62 H           7.7230    2.7184    0.0000 H       1  UNL1        0.0235
     63 H           6.8779    2.4850    0.0000 H       1  UNL1        0.0235
     64 H           7.1113    1.6398    0.0000 H       1  UNL1        0.0235
     65 H           5.3787    0.6395    0.0000 H       1  UNL1        0.0235
     66 H           4.7635    1.2642    0.0000 H       1  UNL1        0.0235
     67 H           4.1388    0.6490    0.0000 H       1  UNL1        0.0235
     68 H           2.6718    0.2657    0.0000 H       1  UNL1        0.0342
     69 H           2.2647   -0.4210    0.0000 H       1  UNL1        0.0342
     70 H           2.7728   -2.5071    0.0000 H       1  UNL1        0.0239
     71 H           3.0030   -3.3531    0.0000 H       1  UNL1        0.0239
     72 H           3.8490   -3.1229    0.0000 H       1  UNL1        0.0239
     73 H           3.7752   -3.1232    0.0000 H       1  UNL1        0.0239
     74 H           4.6230   -3.3469    0.0000 H       1  UNL1        0.0239
     75 H           4.8466   -2.4991    0.0000 H       1  UNL1        0.0239
     76 H          10.1292    0.8171    0.0000 H       1  UNL1        0.0257
     77 H          10.6136    0.0863    0.0000 H       1  UNL1        0.0257
     78 H          11.3445    0.5708    0.0000 H       1  UNL1        0.0257
     79 H          11.7418    2.5309    0.0000 H       1  UNL1        0.0257
     80 H          11.2573    3.2617    0.0000 H       1  UNL1        0.0257
     81 H          10.5265    2.7773    0.0000 H       1  UNL1        0.0257
     82 H          12.3260    1.9400    0.0000 H       1  UNL1        0.2101
@<TRIPOS>BOND
     1     1    26    1
     2     1    82    1
     3     2    28    2
     4     3     4    1
     5     3     5    1
     6     3    10    1
     7     3    19    1
     8     4     7    1
     9     4    14    1
    10     4    21    1
    11     5     6    1
    12     5    11    1
    13     5    33    1
    14     6     9    1
    15     6    17    1
    16     6    24    1
    17     7     8    1
    18     7    12    1
    19     7    34    1
    20     8    13    1
    21     8    22    1
    22     8    25    1
    23     9    15    1
    24     9    16    1
    25     9    35    1
    26    10    15    1
    27    10    36    1
    28    10    37    1
    29    11    12    1
    30    11    38    1
    31    11    39    1
    32    12    40    1
    33    12    41    1
    34    13    18    1
    35    13    23    1
    36    13    42    1
    37    14    18    1
    38    14    43    1
    39    14    44    1
    40    15    45    1
    41    15    46    1
    42    16    20    1
    43    16    26    1
    44    16    47    1
    45    17    20    1
    46    17    48    1
    47    17    49    1
    48    18    50    1
    49    18    51    1
    50    19    52    1
    51    19    53    1
    52    19    54    1
    53    20    55    1
    54    20    56    1
    55    21    57    1
    56    21    58    1
    57    21    59    1
    58    22    27    1
    59    22    60    1
    60    22    61    1
    61    23    28    1
    62    23    29    1
    63    23    30    1
    64    24    62    1
    65    24    63    1
    66    24    64    1
    67    25    65    1
    68    25    66    1
    69    25    67    1
    70    26    31    1
    71    26    32    1
    72    27    28    1
    73    27    68    1
    74    27    69    1
    75    29    70    1
    76    29    71    1
    77    29    72    1
    78    30    73    1
    79    30    74    1
    80    30    75    1
    81    31    79    1
    82    31    80    1
    83    31    81    1
    84    32    76    1
    85    32    77    1
    86    32    78    1
