@<TRIPOS>MOLECULE
IMPHY015105
 113 114 0 0 0
SMALL
GASTEIGER

@<TRIPOS>ATOM
      1 O          16.1466   -2.2985    0.0000 O.3     1  UNL1       -0.3683
      2 O          18.1146   -2.9979    0.0000 O.3     1  UNL1       -0.3892
      3 O          14.1786   -2.9979    0.0000 O.3     1  UNL1       -0.3892
      4 O           2.0000    1.4682    0.0000 O.3     1  UNL1       -0.4542
      5 O           2.0933   -0.3114    0.0000 O.2     1  UNL1       -0.2453
      6 C          16.9556   -1.7107    0.0000 C.3     1  UNL1        0.0850
      7 C          15.3376   -1.7107    0.0000 C.3     1  UNL1        0.0850
      8 C          16.6466   -0.7597    0.0000 C.3     1  UNL1       -0.0217
      9 C          15.6466   -0.7597    0.0000 C.3     1  UNL1       -0.0217
     10 C          17.9066   -2.0197    0.0000 C.3     1  UNL1        0.0813
     11 C          14.3865   -2.0197    0.0000 C.3     1  UNL1        0.0813
     12 C          18.6498   -1.3506    0.0000 C.3     1  UNL1       -0.0244
     13 C          13.6434   -1.3506    0.0000 C.3     1  UNL1       -0.0244
     14 C          19.6008   -1.6596    0.0000 C.3     1  UNL1       -0.0506
     15 C          12.6923   -1.6596    0.0000 C.3     1  UNL1       -0.0506
     16 C          20.3440   -0.9905    0.0000 C.3     1  UNL1       -0.0530
     17 C          11.9492   -0.9905    0.0000 C.3     1  UNL1       -0.0530
     18 C          21.2950   -1.2995    0.0000 C.3     1  UNL1       -0.0531
     19 C          10.9981   -1.2995    0.0000 C.3     1  UNL1       -0.0531
     20 C          22.0382   -0.6304    0.0000 C.3     1  UNL1       -0.0531
     21 C          10.2550   -0.6304    0.0000 C.3     1  UNL1       -0.0531
     22 C          22.9893   -0.9394    0.0000 C.3     1  UNL1       -0.0531
     23 C           9.3039   -0.9394    0.0000 C.3     1  UNL1       -0.0531
     24 C          23.7324   -0.2703    0.0000 C.3     1  UNL1       -0.0531
     25 C           8.5608   -0.2703    0.0000 C.3     1  UNL1       -0.0531
     26 C          24.6835   -0.5793    0.0000 C.3     1  UNL1       -0.0531
     27 C           7.6097   -0.5793    0.0000 C.3     1  UNL1       -0.0531
     28 C          25.4266    0.0898    0.0000 C.3     1  UNL1       -0.0531
     29 C           6.8666    0.0898    0.0000 C.3     1  UNL1       -0.0530
     30 C          26.3777   -0.2192    0.0000 C.3     1  UNL1       -0.0531
     31 C           5.9155   -0.2192    0.0000 C.3     1  UNL1       -0.0528
     32 C          27.1208    0.4500    0.0000 C.3     1  UNL1       -0.0531
     33 C           5.1724    0.4500    0.0000 C.3     1  UNL1       -0.0488
     34 C          28.0719    0.1409    0.0000 C.3     1  UNL1       -0.0531
     35 C           4.2213    0.1409    0.0000 C.3     1  UNL1       -0.0211
     36 C          28.8150    0.8101    0.0000 C.3     1  UNL1       -0.0533
     37 C           3.4782    0.8101    0.0000 C.2     1  UNL1        0.0361
     38 C          29.7661    0.5011    0.0000 C.3     1  UNL1       -0.0559
     39 C           3.5827    1.8046    0.0000 C.2     1  UNL1       -0.0343
     40 C           2.6691    2.2113    0.0000 C.3     1  UNL1        0.1195
     41 C           2.5000    0.6022    0.0000 C.2     1  UNL1        0.3355
     42 C          30.5092    1.1702    0.0000 C.3     1  UNL1       -0.0653
     43 C           2.4612    3.1895    0.0000 C.3     1  UNL1       -0.0240
     44 H          17.5566   -1.1097    0.0000 H       1  UNL1        0.0622
     45 H          15.2046   -2.5503    0.0000 H       1  UNL1        0.0622
     46 H          17.2530   -0.6308    0.0000 H       1  UNL1        0.0292
     47 H          16.5818   -0.1431    0.0000 H       1  UNL1        0.0292
     48 H          15.7114   -0.1431    0.0000 H       1  UNL1        0.0292
     49 H          15.0401   -0.6308    0.0000 H       1  UNL1        0.0292
     50 H          17.4459   -2.4346    0.0000 H       1  UNL1        0.0619
     51 H          13.7968   -2.2113    0.0000 H       1  UNL1        0.0619
     52 H          18.9409   -0.8032    0.0000 H       1  UNL1        0.0291
     53 H          18.1612   -0.9689    0.0000 H       1  UNL1        0.0291
     54 H          14.1319   -0.9689    0.0000 H       1  UNL1        0.0291
     55 H          13.3523   -0.8032    0.0000 H       1  UNL1        0.0291
     56 H          19.3098   -2.2070    0.0000 H       1  UNL1        0.0266
     57 H          20.0894   -2.0413    0.0000 H       1  UNL1        0.0266
     58 H          12.2037   -2.0413    0.0000 H       1  UNL1        0.0266
     59 H          12.9834   -2.2070    0.0000 H       1  UNL1        0.0266
     60 H          20.6351   -0.4431    0.0000 H       1  UNL1        0.0265
     61 H          19.8554   -0.6088    0.0000 H       1  UNL1        0.0265
     62 H          12.4377   -0.6088    0.0000 H       1  UNL1        0.0265
     63 H          11.6581   -0.4431    0.0000 H       1  UNL1        0.0265
     64 H          18.7042   -3.1895    0.0000 H       1  UNL1        0.2099
     65 H          13.5889   -3.1895    0.0000 H       1  UNL1        0.2099
     66 H          21.0040   -1.8469    0.0000 H       1  UNL1        0.0265
     67 H          21.7836   -1.6812    0.0000 H       1  UNL1        0.0265
     68 H          10.5095   -1.6812    0.0000 H       1  UNL1        0.0265
     69 H          11.2892   -1.8469    0.0000 H       1  UNL1        0.0265
     70 H          22.3293   -0.0830    0.0000 H       1  UNL1        0.0265
     71 H          21.5496   -0.2487    0.0000 H       1  UNL1        0.0265
     72 H          10.7435   -0.2487    0.0000 H       1  UNL1        0.0265
     73 H           9.9639   -0.0830    0.0000 H       1  UNL1        0.0265
     74 H          22.6982   -1.4868    0.0000 H       1  UNL1        0.0265
     75 H          23.4778   -1.3211    0.0000 H       1  UNL1        0.0265
     76 H           8.8153   -1.3211    0.0000 H       1  UNL1        0.0265
     77 H           9.5950   -1.4868    0.0000 H       1  UNL1        0.0265
     78 H          24.0235    0.2772    0.0000 H       1  UNL1        0.0265
     79 H          23.2438    0.1114    0.0000 H       1  UNL1        0.0265
     80 H           9.0493    0.1114    0.0000 H       1  UNL1        0.0265
     81 H           8.2697    0.2772    0.0000 H       1  UNL1        0.0265
     82 H          24.3924   -1.1267    0.0000 H       1  UNL1        0.0265
     83 H          25.1720   -0.9610    0.0000 H       1  UNL1        0.0265
     84 H           7.1211   -0.9610    0.0000 H       1  UNL1        0.0265
     85 H           7.9008   -1.1267    0.0000 H       1  UNL1        0.0265
     86 H          25.7177    0.6373    0.0000 H       1  UNL1        0.0265
     87 H          24.9380    0.4716    0.0000 H       1  UNL1        0.0265
     88 H           7.3551    0.4716    0.0000 H       1  UNL1        0.0265
     89 H           6.5755    0.6373    0.0000 H       1  UNL1        0.0265
     90 H          26.0866   -0.7666    0.0000 H       1  UNL1        0.0265
     91 H          26.8662   -0.6009    0.0000 H       1  UNL1        0.0265
     92 H           5.4269   -0.6009    0.0000 H       1  UNL1        0.0265
     93 H           6.2066   -0.7666    0.0000 H       1  UNL1        0.0265
     94 H          27.4119    0.9974    0.0000 H       1  UNL1        0.0265
     95 H          26.6322    0.8317    0.0000 H       1  UNL1        0.0265
     96 H           5.6609    0.8317    0.0000 H       1  UNL1        0.0268
     97 H           4.8813    0.9974    0.0000 H       1  UNL1        0.0268
     98 H          27.7808   -0.4065    0.0000 H       1  UNL1        0.0265
     99 H          28.5604   -0.2408    0.0000 H       1  UNL1        0.0265
    100 H           3.7327   -0.2408    0.0000 H       1  UNL1        0.0315
    101 H           4.5124   -0.4065    0.0000 H       1  UNL1        0.0315
    102 H          29.1061    1.3575    0.0000 H       1  UNL1        0.0265
    103 H          28.3264    1.1918    0.0000 H       1  UNL1        0.0265
    104 H          29.4750   -0.0464    0.0000 H       1  UNL1        0.0263
    105 H          30.2546    0.1193    0.0000 H       1  UNL1        0.0263
    106 H           4.1196    2.1146    0.0000 H       1  UNL1        0.0613
    107 H           2.0703    2.3718    0.0000 H       1  UNL1        0.0777
    108 H          30.9241    0.7094    0.0000 H       1  UNL1        0.0230
    109 H          30.9700    1.5850    0.0000 H       1  UNL1        0.0230
    110 H          30.0943    1.6309    0.0000 H       1  UNL1        0.0230
    111 H           3.0677    3.3184    0.0000 H       1  UNL1        0.0268
    112 H           2.3323    3.7959    0.0000 H       1  UNL1        0.0268
    113 H           1.8548    3.0606    0.0000 H       1  UNL1        0.0268
@<TRIPOS>BOND
     1     1     6    1
     2     1     7    1
     3    10     2    1
     4     2    64    1
     5    11     3    1
     6     3    65    1
     7     4    40    1
     8     4    41    1
     9     5    41    2
    10     6     8    1
    11     6    10    1
    12     6    44    1
    13     7     9    1
    14     7    11    1
    15     7    45    1
    16     8     9    1
    17     8    46    1
    18     8    47    1
    19     9    48    1
    20     9    49    1
    21    10    12    1
    22    10    50    1
    23    11    13    1
    24    11    51    1
    25    12    14    1
    26    12    52    1
    27    12    53    1
    28    13    15    1
    29    13    54    1
    30    13    55    1
    31    14    16    1
    32    14    56    1
    33    14    57    1
    34    15    17    1
    35    15    58    1
    36    15    59    1
    37    16    18    1
    38    16    60    1
    39    16    61    1
    40    17    19    1
    41    17    62    1
    42    17    63    1
    43    18    20    1
    44    18    66    1
    45    18    67    1
    46    19    21    1
    47    19    68    1
    48    19    69    1
    49    20    22    1
    50    20    70    1
    51    20    71    1
    52    21    23    1
    53    21    72    1
    54    21    73    1
    55    22    24    1
    56    22    74    1
    57    22    75    1
    58    23    25    1
    59    23    76    1
    60    23    77    1
    61    24    26    1
    62    24    78    1
    63    24    79    1
    64    25    27    1
    65    25    80    1
    66    25    81    1
    67    26    28    1
    68    26    82    1
    69    26    83    1
    70    27    29    1
    71    27    84    1
    72    27    85    1
    73    28    30    1
    74    28    86    1
    75    28    87    1
    76    29    31    1
    77    29    88    1
    78    29    89    1
    79    30    32    1
    80    30    90    1
    81    30    91    1
    82    31    33    1
    83    31    92    1
    84    31    93    1
    85    32    34    1
    86    32    94    1
    87    32    95    1
    88    33    35    1
    89    33    96    1
    90    33    97    1
    91    34    36    1
    92    34    98    1
    93    34    99    1
    94    35    37    1
    95    35   100    1
    96    35   101    1
    97    36    38    1
    98    36   102    1
    99    36   103    1
   100    37    39    2
   101    37    41    1
   102    38    42    1
   103    38   104    1
   104    38   105    1
   105    39    40    1
   106    39   106    1
   107    40    43    1
   108    40   107    1
   109    42   108    1
   110    42   109    1
   111    42   110    1
   112    43   111    1
   113    43   112    1
   114    43   113    1
