@<TRIPOS>MOLECULE
IMPHY015896
 27 28 0 0 0
SMALL
GASTEIGER

@<TRIPOS>ATOM
      1 O           6.0478    0.2345    0.0000 O.3     1  UNL1       -0.3661
      2 C           4.3901   -0.2226    0.0000 C.3     1  UNL1       -0.0063
      3 C           5.7890   -0.7314    0.0000 C.3     1  UNL1        0.0679
      4 C           3.9123    1.7259    0.0000 C.3     1  UNL1       -0.0170
      5 C           4.6489    0.7433    0.0000 C.3     1  UNL1        0.0805
      6 C           3.1691   -1.0883    0.0000 C.3     1  UNL1       -0.0289
      7 C           2.6157    0.4322    0.0000 C.2     1  UNL1       -0.0482
      8 C           6.7026   -1.1382    0.0000 C.3     1  UNL1       -0.0358
      9 C           5.6845   -1.7259    0.0000 C.3     1  UNL1       -0.0358
     10 C           2.3400   -0.5291    0.0000 C.2     1  UNL1       -0.0822
     11 C           2.0000    1.2202    0.0000 C.3     1  UNL1       -0.0414
     12 H           4.4729   -0.8370    0.0000 H       1  UNL1        0.0332
     13 H           4.2301    2.2583    0.0000 H       1  UNL1        0.0297
     14 H           3.2992    1.8179    0.0000 H       1  UNL1        0.0297
     15 H           5.0183    1.2413    0.0000 H       1  UNL1        0.0643
     16 H           2.7632   -1.5570    0.0000 H       1  UNL1        0.0311
     17 H           3.5857   -1.5474    0.0000 H       1  UNL1        0.0311
     18 H           6.4504   -1.7046    0.0000 H       1  UNL1        0.0257
     19 H           7.2690   -1.3903    0.0000 H       1  UNL1        0.0257
     20 H           6.9548   -0.5718    0.0000 H       1  UNL1        0.0257
     21 H           5.0679   -1.6611    0.0000 H       1  UNL1        0.0257
     22 H           5.6197   -2.3425    0.0000 H       1  UNL1        0.0257
     23 H           6.3011   -1.7908    0.0000 H       1  UNL1        0.0257
     24 H           1.7574   -0.7411    0.0000 H       1  UNL1        0.0572
     25 H           2.4886    1.6019    0.0000 H       1  UNL1        0.0275
     26 H           1.6183    1.7088    0.0000 H       1  UNL1        0.0275
     27 H           1.5114    0.8385    0.0000 H       1  UNL1        0.0275
@<TRIPOS>BOND
     1     1     3    1
     2     1     5    1
     3     2     3    1
     4     2     4    1
     5     2     6    1
     6     2    12    1
     7     3     8    1
     8     3     9    1
     9     4     5    1
    10     4    13    1
    11     4    14    1
    12     5     7    1
    13     5    15    1
    14     6    10    1
    15     6    16    1
    16     6    17    1
    17     7    10    2
    18     7    11    1
    19     8    18    1
    20     8    19    1
    21     8    20    1
    22     9    21    1
    23     9    22    1
    24     9    23    1
    25    10    24    1
    26    11    25    1
    27    11    26    1
    28    11    27    1
