@<TRIPOS>MOLECULE
IMPHY014658
 56 59 0 0 0
SMALL
GASTEIGER

@<TRIPOS>ATOM
      1 O           2.5971    2.1686    0.0000 O.2     1  UNL1       -0.3010
      2 C           5.6538   -0.1308    0.0000 C.3     1  UNL1       -0.0254
      3 C           4.7853    0.3648    0.0000 C.3     1  UNL1       -0.0290
      4 C           3.8778   -0.1465    0.0000 C.3     1  UNL1       -0.0162
      5 C           3.8750   -1.1882    0.0000 C.3     1  UNL1       -0.0296
      6 C           5.6293    1.0505    0.0000 C.3     1  UNL1       -0.0440
      7 C           6.3054    2.0196    0.0000 C.3     1  UNL1       -0.0379
      8 C           6.5828    0.2391    0.0000 C.3     1  UNL1       -0.0442
      9 C           5.6751   -1.1722    0.0000 C.3     1  UNL1       -0.0468
     10 C           4.6313    1.3529    0.0000 C.3     1  UNL1       -0.0489
     11 C           6.8728    1.1962    0.0000 C.3     1  UNL1       -0.0405
     12 C           4.7797   -1.7045    0.0000 C.3     1  UNL1       -0.0487
     13 C           2.9423   -1.7425    0.0000 C.3     1  UNL1       -0.0315
     14 C           5.3078    2.0894    0.0000 C.3     1  UNL1       -0.0497
     15 C           2.9482    0.4129    0.0000 C.3     1  UNL1       -0.0464
     16 C           3.7069    0.8387    0.0000 C.3     1  UNL1        0.0090
     17 C           2.0000   -1.2047    0.0000 C.3     1  UNL1       -0.0476
     18 C           2.0029   -0.1197    0.0000 C.3     1  UNL1       -0.0520
     19 C           7.8609    1.3502    0.0000 C.3     1  UNL1       -0.0621
     20 C           2.4500   -2.6130    0.0000 C.3     1  UNL1       -0.0595
     21 C           3.4500   -2.6041    0.0000 C.3     1  UNL1       -0.0595
     22 C           2.7681    1.1833    0.0000 C.2     1  UNL1        0.1209
     23 H           4.1314    0.9080    0.0000 H       1  UNL1        0.0312
     24 H           3.8825   -2.0381    0.0000 H       1  UNL1        0.0311
     25 H           5.2551    1.5448    0.0000 H       1  UNL1        0.0273
     26 H           5.0436    0.8471    0.0000 H       1  UNL1        0.0273
     27 H           6.5519    2.8331    0.0000 H       1  UNL1        0.0304
     28 H           6.6783   -0.3735    0.0000 H       1  UNL1        0.0273
     29 H           7.2013    0.1959    0.0000 H       1  UNL1        0.0273
     30 H           5.8960   -1.7516    0.0000 H       1  UNL1        0.0271
     31 H           6.2836   -1.0537    0.0000 H       1  UNL1        0.0271
     32 H           4.2795    1.8634    0.0000 H       1  UNL1        0.0268
     33 H           4.0553    1.1235    0.0000 H       1  UNL1        0.0268
     34 H           7.1179    1.7657    0.0000 H       1  UNL1        0.0301
     35 H           4.3847   -2.1824    0.0000 H       1  UNL1        0.0268
     36 H           5.1830   -2.1754    0.0000 H       1  UNL1        0.0268
     37 H           5.4876    2.6827    0.0000 H       1  UNL1        0.0268
     38 H           4.7694    2.3967    0.0000 H       1  UNL1        0.0268
     39 H           3.3541    0.8816    0.0000 H       1  UNL1        0.0271
     40 H           2.5559    0.8930    0.0000 H       1  UNL1        0.0271
     41 H           4.3269    0.8371    0.0000 H       1  UNL1        0.0344
     42 H           3.8162    1.4490    0.0000 H       1  UNL1        0.0344
     43 H           1.3894   -1.0970    0.0000 H       1  UNL1        0.0271
     44 H           1.7894   -1.7879    0.0000 H       1  UNL1        0.0271
     45 H           1.7955    0.4645    0.0000 H       1  UNL1        0.0266
     46 H           1.3918   -0.2242    0.0000 H       1  UNL1        0.0266
     47 H           7.9564    0.7375    0.0000 H       1  UNL1        0.0233
     48 H           8.4735    1.4456    0.0000 H       1  UNL1        0.0233
     49 H           7.7654    1.9628    0.0000 H       1  UNL1        0.0233
     50 H           1.9104   -2.3077    0.0000 H       1  UNL1        0.0235
     51 H           2.1448   -3.1526    0.0000 H       1  UNL1        0.0235
     52 H           2.9897   -2.9182    0.0000 H       1  UNL1        0.0235
     53 H           2.9158   -2.9188    0.0000 H       1  UNL1        0.0235
     54 H           3.7647   -3.1383    0.0000 H       1  UNL1        0.0235
     55 H           3.9841   -2.2894    0.0000 H       1  UNL1        0.0235
     56 H           2.2921    0.7861    0.0000 H       1  UNL1        0.1026
@<TRIPOS>BOND
     1     1    22    2
     2     2     3    1
     3     2     6    1
     4     2     8    1
     5     2     9    1
     6     3     4    1
     7     3    10    1
     8     3    23    1
     9     4     5    1
    10     4    15    1
    11     4    16    1
    12     5    12    1
    13     5    13    1
    14     5    24    1
    15     6     7    1
    16     6    25    1
    17     6    26    1
    18     7    11    1
    19     7    14    1
    20     7    27    1
    21     8    11    1
    22     8    28    1
    23     8    29    1
    24     9    12    1
    25     9    30    1
    26     9    31    1
    27    10    14    1
    28    10    32    1
    29    10    33    1
    30    11    19    1
    31    11    34    1
    32    12    35    1
    33    12    36    1
    34    13    17    1
    35    13    20    1
    36    13    21    1
    37    14    37    1
    38    14    38    1
    39    15    18    1
    40    15    39    1
    41    15    40    1
    42    16    22    1
    43    16    41    1
    44    16    42    1
    45    17    18    1
    46    17    43    1
    47    17    44    1
    48    18    45    1
    49    18    46    1
    50    19    47    1
    51    19    48    1
    52    19    49    1
    53    20    50    1
    54    20    51    1
    55    20    52    1
    56    21    53    1
    57    21    54    1
    58    21    55    1
    59    22    56    1
