@<TRIPOS>MOLECULE
IMPHY014674
 138 143 0 0 0
SMALL
GASTEIGER

@<TRIPOS>ATOM
      1 O           8.1006   -4.3895    0.0000 O.2     1  UNL1       -0.5092
      2 O          10.4256   -3.4760    0.0000 O.3     1  UNL1       -0.4672
      3 O          13.1449   -0.7964    0.0000 O.3     1  UNL1       -0.4605
      4 O          10.6312   -1.7562    0.0000 O.2     1  UNL1       -0.2497
      5 O          12.1022   -2.1794    0.0000 O.2     1  UNL1       -0.2508
      6 N           8.1923    0.0868    0.0000 N.pl3   1  UNL1       -0.3203
      7 N           6.7126   -1.2626    0.0000 N.2     1  UNL1       -0.2465
      8 N           6.6795    1.4363    0.0000 N.2     1  UNL1       -0.2469
      9 N           5.2310    0.0868    0.0000 N.2     1  UNL1       -0.2472
     10 C           9.7067   -0.3734    0.0000 C.3     1  UNL1        0.0058
     11 C           9.7067    0.6130    0.0000 C.3     1  UNL1        0.0024
     12 C           8.7846   -0.6374    0.0000 C.2     1  UNL1        0.0181
     13 C          10.5052   -0.9754    0.0000 C.3     1  UNL1       -0.0344
     14 C           8.4894   -1.5911    0.0000 C.2     1  UNL1        0.0170
     15 C           8.7516    0.8770    0.0000 C.2     1  UNL1        0.0134
     16 C           9.0390   -2.4381    0.0000 C.3     1  UNL1        0.1421
     17 C          10.5025    1.2187    0.0000 C.3     1  UNL1       -0.0566
     18 C           7.5028   -1.8550    0.0000 C.2     1  UNL1        0.0810
     19 C           7.2058   -2.8086    0.0000 C.2     1  UNL1        0.0440
     20 C          11.4258   -0.5849    0.0000 C.3     1  UNL1        0.0456
     21 C           8.0299   -3.3920    0.0000 C.2     1  UNL1        0.1217
     22 C           8.4563    1.7977    0.0000 C.2     1  UNL1       -0.0187
     23 C           6.2191   -2.8086    0.0000 C.2     1  UNL1       -0.0126
     24 C          10.0319   -2.5568    0.0000 C.2     1  UNL1        0.3219
     25 C           5.9222   -1.8881    0.0000 C.2     1  UNL1        0.0702
     26 C           7.5028    2.0947    0.0000 C.2     1  UNL1        0.0695
     27 C          12.2243   -1.1869    0.0000 C.2     1  UNL1        0.3074
     28 C          22.5389   -2.4558    0.0000 C.3     1  UNL1       -0.0439
     29 C           5.6304   -3.6169    0.0000 C.3     1  UNL1       -0.0370
     30 C          21.7404   -1.8538    0.0000 C.3     1  UNL1       -0.0505
     31 C          19.1007   -2.0329    0.0000 C.3     1  UNL1       -0.0439
     32 C          20.8198   -2.2444    0.0000 C.3     1  UNL1       -0.0526
     33 C          20.0213   -1.6423    0.0000 C.3     1  UNL1       -0.0505
     34 C           7.1728    3.0152    0.0000 C.2     1  UNL1       -0.0159
     35 C          23.4595   -2.0653    0.0000 C.3     1  UNL1       -0.0505
     36 C           4.9686   -1.5911    0.0000 C.2     1  UNL1       -0.0103
     37 C          18.3022   -1.4309    0.0000 C.3     1  UNL1       -0.0502
     38 C          24.2580   -2.6673    0.0000 C.3     1  UNL1       -0.0526
     39 C           6.1862    3.0152    0.0000 C.2     1  UNL1        0.0048
     40 C           5.8892    2.0617    0.0000 C.2     1  UNL1        0.0740
     41 C          17.3816   -1.8214    0.0000 C.3     1  UNL1       -0.0491
     42 C           4.6717   -0.6704    0.0000 C.2     1  UNL1        0.0700
     43 C          25.1786   -2.2768    0.0000 C.3     1  UNL1       -0.0507
     44 C          22.4168   -3.4484    0.0000 C.3     1  UNL1       -0.0624
     45 C          18.9786   -3.0254    0.0000 C.3     1  UNL1       -0.0624
     46 C          25.9771   -2.8788    0.0000 C.3     1  UNL1       -0.0467
     47 C           7.7483    3.8330    0.0000 C.3     1  UNL1       -0.0371
     48 C          16.5831   -1.2194    0.0000 C.3     1  UNL1       -0.0319
     49 C           3.7182   -0.4064    0.0000 C.2     1  UNL1       -0.0173
     50 C           4.6717    0.8440    0.0000 C.2     1  UNL1        0.0698
     51 C          13.9434   -1.3984    0.0000 C.3     1  UNL1        0.1109
     52 C           4.9356    1.7977    0.0000 C.2     1  UNL1       -0.0100
     53 C           3.7182    0.5802    0.0000 C.2     1  UNL1       -0.0198
     54 C          11.4185   -3.5948    0.0000 C.3     1  UNL1        0.0817
     55 C          15.6625   -1.6099    0.0000 C.2     1  UNL1       -0.0734
     56 C          14.8640   -1.0079    0.0000 C.2     1  UNL1       -0.0480
     57 C           5.5935    3.8206    0.0000 C.2     1  UNL1       -0.0594
     58 C           2.9223   -1.0119    0.0000 C.3     1  UNL1       -0.0282
     59 C          26.8977   -2.4883    0.0000 C.3     1  UNL1       -0.0627
     60 C          25.8550   -3.8713    0.0000 C.3     1  UNL1       -0.0627
     61 C           2.9223    1.1857    0.0000 C.3     1  UNL1       -0.0374
     62 C          15.5404   -2.6024    0.0000 C.3     1  UNL1       -0.0437
     63 C           2.0000   -0.6254    0.0000 C.3     1  UNL1       -0.0612
     64 C           5.9946    4.7366    0.0000 C.2     1  UNL1       -0.0981
     65 H          10.2616   -0.0969    0.0000 H       1  UNL1        0.0368
     66 H           9.5894    1.2218    0.0000 H       1  UNL1        0.0365
     67 H          10.0517   -1.3982    0.0000 H       1  UNL1        0.0277
     68 H          10.8428   -1.4955    0.0000 H       1  UNL1        0.0277
     69 H           7.5727    0.0652    0.0000 H       1  UNL1        0.1516
     70 H           9.3668   -1.9118    0.0000 H       1  UNL1        0.0544
     71 H          10.8780    0.7253    0.0000 H       1  UNL1        0.0236
     72 H          10.9959    1.5942    0.0000 H       1  UNL1        0.0236
     73 H          10.1270    1.7120    0.0000 H       1  UNL1        0.0236
     74 H          11.8794   -0.1622    0.0000 H       1  UNL1        0.0378
     75 H          11.0883   -0.0649    0.0000 H       1  UNL1        0.0378
     76 H           8.8928    2.2380    0.0000 H       1  UNL1        0.0654
     77 H          23.0339   -2.8291    0.0000 H       1  UNL1        0.0298
     78 H           5.1292   -3.2520    0.0000 H       1  UNL1        0.0278
     79 H           5.2654   -4.1181    0.0000 H       1  UNL1        0.0278
     80 H           6.1316   -3.9819    0.0000 H       1  UNL1        0.0278
     81 H          22.1939   -1.4311    0.0000 H       1  UNL1        0.0268
     82 H          21.4028   -1.3338    0.0000 H       1  UNL1        0.0268
     83 H          18.5299   -2.2750    0.0000 H       1  UNL1        0.0298
     84 H          20.3662   -2.6671    0.0000 H       1  UNL1        0.0265
     85 H          21.1573   -2.7644    0.0000 H       1  UNL1        0.0265
     86 H          20.4748   -1.2196    0.0000 H       1  UNL1        0.0268
     87 H          19.6837   -1.1223    0.0000 H       1  UNL1        0.0268
     88 H           7.5868   -4.7366    0.0000 H       1  UNL1        0.2917
     89 H          23.9130   -1.6426    0.0000 H       1  UNL1        0.0268
     90 H          23.1219   -1.5453    0.0000 H       1  UNL1        0.0268
     91 H           4.5324   -2.0317    0.0000 H       1  UNL1        0.0660
     92 H          18.7557   -1.0081    0.0000 H       1  UNL1        0.0268
     93 H          17.9646   -0.9108    0.0000 H       1  UNL1        0.0268
     94 H          23.8044   -3.0901    0.0000 H       1  UNL1        0.0265
     95 H          24.5955   -3.1874    0.0000 H       1  UNL1        0.0265
     96 H          16.9281   -2.2441    0.0000 H       1  UNL1        0.0268
     97 H          17.7192   -2.3414    0.0000 H       1  UNL1        0.0268
     98 H          25.6321   -1.8541    0.0000 H       1  UNL1        0.0268
     99 H          24.8410   -1.7568    0.0000 H       1  UNL1        0.0268
    100 H          21.8014   -3.3726    0.0000 H       1  UNL1        0.0232
    101 H          22.3411   -4.0637    0.0000 H       1  UNL1        0.0232
    102 H          23.0321   -3.5240    0.0000 H       1  UNL1        0.0232
    103 H          18.3632   -2.9497    0.0000 H       1  UNL1        0.0232
    104 H          18.9029   -3.6407    0.0000 H       1  UNL1        0.0232
    105 H          19.5940   -3.1011    0.0000 H       1  UNL1        0.0232
    106 H          25.4063   -3.1209    0.0000 H       1  UNL1        0.0295
    107 H           8.2553    3.4762    0.0000 H       1  UNL1        0.0278
    108 H           8.1051    4.3400    0.0000 H       1  UNL1        0.0278
    109 H           7.2412    4.1898    0.0000 H       1  UNL1        0.0278
    110 H          17.0366   -0.7966    0.0000 H       1  UNL1        0.0310
    111 H          16.2456   -0.6993    0.0000 H       1  UNL1        0.0310
    112 H          13.4899   -1.8211    0.0000 H       1  UNL1        0.0743
    113 H          14.2810   -1.9185    0.0000 H       1  UNL1        0.0743
    114 H           4.4972    2.2361    0.0000 H       1  UNL1        0.0660
    115 H          11.3449   -4.2104    0.0000 H       1  UNL1        0.0661
    116 H          12.0341   -3.6683    0.0000 H       1  UNL1        0.0661
    117 H          11.4921   -2.9791    0.0000 H       1  UNL1        0.0661
    118 H          14.9397   -0.3925    0.0000 H       1  UNL1        0.0605
    119 H           4.9773    3.7520    0.0000 H       1  UNL1        0.0618
    120 H           2.5870   -1.5334    0.0000 H       1  UNL1        0.0311
    121 H           3.3777   -1.4326    0.0000 H       1  UNL1        0.0311
    122 H          27.1398   -3.0590    0.0000 H       1  UNL1        0.0232
    123 H          27.4684   -2.2462    0.0000 H       1  UNL1        0.0232
    124 H          26.6555   -1.9175    0.0000 H       1  UNL1        0.0232
    125 H          25.2396   -3.7956    0.0000 H       1  UNL1        0.0232
    126 H          25.7793   -4.4867    0.0000 H       1  UNL1        0.0232
    127 H          26.4703   -3.9470    0.0000 H       1  UNL1        0.0232
    128 H           3.2978    1.6791    0.0000 H       1  UNL1        0.0278
    129 H           2.4289    1.5611    0.0000 H       1  UNL1        0.0278
    130 H           2.5469    0.6923    0.0000 H       1  UNL1        0.0278
    131 H          14.9250   -2.5267    0.0000 H       1  UNL1        0.0274
    132 H          15.4647   -3.2178    0.0000 H       1  UNL1        0.0274
    133 H          16.1558   -2.6781    0.0000 H       1  UNL1        0.0274
    134 H           2.2396   -0.0536    0.0000 H       1  UNL1        0.0233
    135 H           1.4282   -0.3858    0.0000 H       1  UNL1        0.0233
    136 H           1.7604   -1.1972    0.0000 H       1  UNL1        0.0233
    137 H           6.6108    4.8052    0.0000 H       1  UNL1        0.0535
    138 H           5.6271    5.2360    0.0000 H       1  UNL1        0.0535
@<TRIPOS>BOND
     1     1    21    1
     2     1    88    1
     3     2    24    1
     4     2    54    1
     5     3    27    1
     6     3    51    1
     7     4    24    2
     8     5    27    2
     9     6    12    1
    10     6    15    1
    11     6    69    1
    12     7    18    2
    13     7    25    1
    14     8    26    2
    15     8    40    1
    16     9    42    1
    17     9    50    2
    18    10    11    1
    19    10    12    1
    20    10    13    1
    21    10    65    1
    22    11    15    1
    23    11    17    1
    24    11    66    1
    25    12    14    2
    26    13    20    1
    27    13    67    1
    28    13    68    1
    29    14    16    1
    30    14    18    1
    31    15    22    2
    32    16    21    1
    33    16    24    1
    34    16    70    1
    35    17    71    1
    36    17    72    1
    37    17    73    1
    38    18    19    1
    39    19    21    2
    40    19    23    1
    41    20    27    1
    42    20    74    1
    43    20    75    1
    44    22    26    1
    45    22    76    1
    46    23    25    2
    47    23    29    1
    48    25    36    1
    49    26    34    1
    50    28    30    1
    51    28    35    1
    52    28    44    1
    53    28    77    1
    54    29    78    1
    55    29    79    1
    56    29    80    1
    57    30    32    1
    58    30    81    1
    59    30    82    1
    60    31    33    1
    61    31    37    1
    62    31    45    1
    63    31    83    1
    64    32    33    1
    65    32    84    1
    66    32    85    1
    67    33    86    1
    68    33    87    1
    69    34    39    2
    70    34    47    1
    71    35    38    1
    72    35    89    1
    73    35    90    1
    74    36    42    2
    75    36    91    1
    76    37    41    1
    77    37    92    1
    78    37    93    1
    79    38    43    1
    80    38    94    1
    81    38    95    1
    82    39    40    1
    83    39    57    1
    84    40    52    2
    85    41    48    1
    86    41    96    1
    87    41    97    1
    88    42    49    1
    89    43    46    1
    90    43    98    1
    91    43    99    1
    92    44   100    1
    93    44   101    1
    94    44   102    1
    95    45   103    1
    96    45   104    1
    97    45   105    1
    98    46    59    1
    99    46    60    1
   100    46   106    1
   101    47   107    1
   102    47   108    1
   103    47   109    1
   104    48    55    1
   105    48   110    1
   106    48   111    1
   107    49    53    2
   108    49    58    1
   109    50    52    1
   110    50    53    1
   111    51    56    1
   112    51   112    1
   113    51   113    1
   114    52   114    1
   115    53    61    1
   116    54   115    1
   117    54   116    1
   118    54   117    1
   119    55    56    2
   120    55    62    1
   121    56   118    1
   122    57    64    2
   123    57   119    1
   124    58    63    1
   125    58   120    1
   126    58   121    1
   127    59   122    1
   128    59   123    1
   129    59   124    1
   130    60   125    1
   131    60   126    1
   132    60   127    1
   133    61   128    1
   134    61   129    1
   135    61   130    1
   136    62   131    1
   137    62   132    1
   138    62   133    1
   139    63   134    1
   140    63   135    1
   141    63   136    1
   142    64   137    1
   143    64   138    1
