@<TRIPOS>MOLECULE
IMPHY009579
 36 38 0 0 0
SMALL
GASTEIGER

@<TRIPOS>ATOM
      1 O           6.0812    0.4104    0.0000 O.3     1  UNL1       -0.4523
      2 O           7.4739    1.8029    0.0000 O.3     1  UNL1       -0.3492
      3 O           6.3919    2.9704    0.0000 O.2     1  UNL1       -0.2848
      4 O           4.2690    3.2152    0.0000 O.3     1  UNL1       -0.4942
      5 O           2.5369    0.2152    0.0000 O.3     1  UNL1       -0.5065
      6 O           7.0557   -3.3507    0.0000 O.3     1  UNL1       -0.5068
      7 C           6.6648    1.2152    0.0000 C.3     1  UNL1        0.2783
      8 C           7.4739    0.6274    0.0000 C.3     1  UNL1        0.0459
      9 C           6.0812    2.0199    0.0000 C.2     1  UNL1        0.2413
     10 C           5.1350    1.7152    0.0000 C.ar    1  UNL1        0.1075
     11 C           5.1350    0.7151    0.0000 C.ar    1  UNL1        0.1424
     12 C           7.3693   -0.3672    0.0000 C.ar    1  UNL1       -0.0405
     13 C           4.2690    2.2152    0.0000 C.ar    1  UNL1        0.1378
     14 C           4.2690    0.2152    0.0000 C.ar    1  UNL1        0.0226
     15 C           3.4030    1.7152    0.0000 C.ar    1  UNL1        0.0225
     16 C           3.4030    0.7151    0.0000 C.ar    1  UNL1        0.1238
     17 C           6.4558   -0.7739    0.0000 C.ar    1  UNL1       -0.0549
     18 C           8.1784   -0.9549    0.0000 C.ar    1  UNL1       -0.0549
     19 C           6.3513   -1.7684    0.0000 C.ar    1  UNL1       -0.0199
     20 C           8.0738   -1.9495    0.0000 C.ar    1  UNL1       -0.0199
     21 C           7.1603   -2.3562    0.0000 C.ar    1  UNL1        0.1169
     22 C           3.4030    3.7152    0.0000 C.3     1  UNL1        0.0788
     23 H           8.0698    0.4565    0.0000 H       1  UNL1        0.0382
     24 H           7.7456    1.1846    0.0000 H       1  UNL1        0.0382
     25 H           4.2690   -0.4048    0.0000 H       1  UNL1        0.0691
     26 H           8.0403    1.5508    0.0000 H       1  UNL1        0.2143
     27 H           2.8660    2.0252    0.0000 H       1  UNL1        0.0691
     28 H           5.9542   -0.4095    0.0000 H       1  UNL1        0.0621
     29 H           8.7448   -0.7028    0.0000 H       1  UNL1        0.0621
     30 H           5.7849   -2.0206    0.0000 H       1  UNL1        0.0654
     31 H           8.5754   -2.3139    0.0000 H       1  UNL1        0.0654
     32 H           2.0000    0.5252    0.0000 H       1  UNL1        0.2921
     33 H           3.7130    4.2521    0.0000 H       1  UNL1        0.0660
     34 H           2.8660    4.0252    0.0000 H       1  UNL1        0.0660
     35 H           3.0930    3.1782    0.0000 H       1  UNL1        0.0660
     36 H           7.5573   -3.7152    0.0000 H       1  UNL1        0.2921
@<TRIPOS>BOND
     1     1     7    1
     2     1    11    1
     3     2     7    1
     4     2    26    1
     5     3     9    2
     6     4    13    1
     7     4    22    1
     8     5    16    1
     9     5    32    1
    10     6    21    1
    11     6    36    1
    12     7     8    1
    13     7     9    1
    14     8    12    1
    15     8    23    1
    16     8    24    1
    17     9    10    1
    18    10    11   ar
    19    10    13   ar
    20    11    14   ar
    21    12    17   ar
    22    12    18   ar
    23    13    15   ar
    24    14    16   ar
    25    14    25    1
    26    15    16   ar
    27    15    27    1
    28    17    19   ar
    29    17    28    1
    30    18    20   ar
    31    18    29    1
    32    19    21   ar
    33    19    30    1
    34    20    21   ar
    35    20    31    1
    36    22    33    1
    37    22    34    1
    38    22    35    1
