@<TRIPOS>MOLECULE
IMPHY015471
 12 11 0 0 0
SMALL
GASTEIGER

@<TRIPOS>ATOM
      1 O           4.5981    0.7500    0.0000 O.3     1  UNL1       -0.4649
      2 O           3.7320   -0.7500    0.0000 O.2     1  UNL1       -0.2457
      3 C           5.4641    0.2500    0.0000 C.3     1  UNL1        0.0820
      4 C           3.7320    0.2500    0.0000 C.2     1  UNL1        0.3311
      5 C           2.8660    0.7500    0.0000 C.2     1  UNL1        0.0154
      6 C           2.0000    0.2500    0.0000 C.2     1  UNL1       -0.0919
      7 H           5.1541   -0.2869    0.0000 H       1  UNL1        0.0661
      8 H           6.0010   -0.0600    0.0000 H       1  UNL1        0.0661
      9 H           5.7741    0.7869    0.0000 H       1  UNL1        0.0661
     10 H           2.8660    1.3700    0.0000 H       1  UNL1        0.0683
     11 H           1.4631    0.5600    0.0000 H       1  UNL1        0.0537
     12 H           2.0000   -0.3700    0.0000 H       1  UNL1        0.0537
@<TRIPOS>BOND
     1     1     3    1
     2     1     4    1
     3     2     4    2
     4     3     7    1
     5     3     8    1
     6     3     9    1
     7     4     5    1
     8     5     6    2
     9     5    10    1
    10     6    11    1
    11     6    12    1
