@<TRIPOS>MOLECULE
IMPHY008558
 57 61 0 0 0
SMALL
GASTEIGER

@<TRIPOS>ATOM
      1 O           3.7153   -1.2378    0.0000 O.3     1  UNL1       -0.3597
      2 O           4.3723    2.2344    0.0000 O.3     1  UNL1       -0.4535
      3 O           9.1086   -2.2897    0.0000 O.3     1  UNL1       -0.4610
      4 O           2.8836    3.2035    0.0000 O.2     1  UNL1       -0.2453
      5 O           9.9688   -0.7864    0.0000 O.2     1  UNL1       -0.2512
      6 C           4.5816   -0.7374    0.0000 C.3     1  UNL1        0.1038
      7 C           5.4476   -0.2374    0.0000 C.3     1  UNL1        0.0002
      8 C           6.3576   -0.7442    0.0000 C.3     1  UNL1       -0.0229
      9 C           6.3656   -1.7858    0.0000 C.3     1  UNL1       -0.0267
     10 C           3.7155   -0.2374    0.0000 C.3     1  UNL1        0.1138
     11 C           4.5655   -1.7789    0.0000 C.3     1  UNL1       -0.0204
     12 C           5.4635   -2.3066    0.0000 C.3     1  UNL1       -0.0464
     13 C           7.3010   -2.3356    0.0000 C.3     1  UNL1        0.0055
     14 C           5.4476    0.7626    0.0000 C.3     1  UNL1       -0.0056
     15 C           7.2844   -0.1802    0.0000 C.3     1  UNL1       -0.0436
     16 C           3.7155    0.7626    0.0000 C.2     1  UNL1        0.0113
     17 C           4.5816    1.2626    0.0000 C.3     1  UNL1        0.1280
     18 C           8.2407   -1.7931    0.0000 C.3     1  UNL1        0.1084
     19 C           6.3499    0.2557    0.0000 C.3     1  UNL1       -0.0589
     20 C           8.2323   -0.7081    0.0000 C.3     1  UNL1       -0.0146
     21 C           7.7977   -3.2035    0.0000 C.3     1  UNL1       -0.0562
     22 C           6.7977   -3.1996    0.0000 C.3     1  UNL1       -0.0562
     23 C           2.9785    1.4297    0.0000 C.2     1  UNL1        0.0388
     24 C           3.3836    2.3375    0.0000 C.2     1  UNL1        0.3356
     25 C           2.0000    1.2235    0.0000 C.3     1  UNL1       -0.0328
     26 C           9.9727   -1.7864    0.0000 C.2     1  UNL1        0.3042
     27 C          10.8406   -2.2830    0.0000 C.3     1  UNL1        0.0332
     28 H           6.1804    0.1933    0.0000 H       1  UNL1        0.0336
     29 H           6.3623   -2.6358    0.0000 H       1  UNL1        0.0312
     30 H           2.8655   -0.2373    0.0000 H       1  UNL1        0.0674
     31 H           3.9563   -1.6634    0.0000 H       1  UNL1        0.0294
     32 H           4.3475   -2.3593    0.0000 H       1  UNL1        0.0294
     33 H           5.0626   -2.7795    0.0000 H       1  UNL1        0.0269
     34 H           5.8608   -2.7826    0.0000 H       1  UNL1        0.0269
     35 H           6.0582    0.6549    0.0000 H       1  UNL1        0.0308
     36 H           5.6596    1.3452    0.0000 H       1  UNL1        0.0308
     37 H           7.6743    0.3019    0.0000 H       1  UNL1        0.0272
     38 H           6.8762    0.2865    0.0000 H       1  UNL1        0.0272
     39 H           5.2686    1.7631    0.0000 H       1  UNL1        0.0783
     40 H           8.2418   -2.4131    0.0000 H       1  UNL1        0.0739
     41 H           6.9698    0.2605    0.0000 H       1  UNL1        0.0235
     42 H           6.3451    0.8757    0.0000 H       1  UNL1        0.0235
     43 H           5.7299    0.2510    0.0000 H       1  UNL1        0.0235
     44 H           8.8440   -0.8095    0.0000 H       1  UNL1        0.0301
     45 H           8.4368   -0.1228    0.0000 H       1  UNL1        0.0301
     46 H           7.2596   -3.5114    0.0000 H       1  UNL1        0.0236
     47 H           8.1056   -3.7416    0.0000 H       1  UNL1        0.0236
     48 H           8.3358   -2.8956    0.0000 H       1  UNL1        0.0236
     49 H           6.2620   -2.8876    0.0000 H       1  UNL1        0.0236
     50 H           6.4856   -3.7354    0.0000 H       1  UNL1        0.0236
     51 H           7.3334   -3.5117    0.0000 H       1  UNL1        0.0236
     52 H           1.8721    1.8302    0.0000 H       1  UNL1        0.0280
     53 H           1.3933    1.0956    0.0000 H       1  UNL1        0.0280
     54 H           2.1279    0.6168    0.0000 H       1  UNL1        0.0280
     55 H          10.5327   -2.8212    0.0000 H       1  UNL1        0.0342
     56 H          11.3788   -2.5910    0.0000 H       1  UNL1        0.0342
     57 H          11.1486   -1.7449    0.0000 H       1  UNL1        0.0342
@<TRIPOS>BOND
     1     6     1    1
     2     1    10    1
     3     2    17    1
     4     2    24    1
     5    18     3    1
     6     3    26    1
     7     4    24    2
     8     5    26    2
     9     6     7    1
    10     6    10    1
    11     6    11    1
    12     7     8    1
    13     7    14    1
    14     7    28    1
    15     8     9    1
    16     8    15    1
    17     8    19    1
    18     9    12    1
    19     9    13    1
    20     9    29    1
    21    10    16    1
    22    10    30    1
    23    11    12    1
    24    11    31    1
    25    11    32    1
    26    12    33    1
    27    12    34    1
    28    13    18    1
    29    13    21    1
    30    13    22    1
    31    14    17    1
    32    14    35    1
    33    14    36    1
    34    15    20    1
    35    15    37    1
    36    15    38    1
    37    16    17    1
    38    16    23    2
    39    17    39    1
    40    18    20    1
    41    18    40    1
    42    19    41    1
    43    19    42    1
    44    19    43    1
    45    20    44    1
    46    20    45    1
    47    21    46    1
    48    21    47    1
    49    21    48    1
    50    22    49    1
    51    22    50    1
    52    22    51    1
    53    23    24    1
    54    23    25    1
    55    25    52    1
    56    25    53    1
    57    25    54    1
    58    26    27    1
    59    27    55    1
    60    27    56    1
    61    27    57    1
