@<TRIPOS>MOLECULE
IMPHY012176
 34 34 0 0 0
SMALL
GASTEIGER

@<TRIPOS>ATOM
      1 O           5.1350   -0.5000    0.0000 O.3     1  UNL1       -0.4611
      2 O           3.4030   -0.5000    0.0000 O.2     1  UNL1       -0.2448
      3 O           2.5369   -2.0000    0.0000 O.3     1  UNL1       -0.5059
      4 C           6.0010    2.0000    0.0000 C.3     1  UNL1       -0.0500
      5 C           6.8671    2.5000    0.0000 C.3     1  UNL1       -0.0532
      6 C           6.0010    1.0000    0.0000 C.3     1  UNL1       -0.0185
      7 C           6.8671    3.5000    0.0000 C.3     1  UNL1       -0.0559
      8 C           5.1350    0.5000    0.0000 C.3     1  UNL1        0.0928
      9 C           7.7331    4.0000    0.0000 C.3     1  UNL1       -0.0653
     10 C           4.2690   -1.0000    0.0000 C.2     1  UNL1        0.3427
     11 C           4.2690   -2.0000    0.0000 C.ar    1  UNL1        0.1003
     12 C           3.4030   -2.5000    0.0000 C.ar    1  UNL1        0.1308
     13 C           5.1350   -2.5000    0.0000 C.ar    1  UNL1       -0.0442
     14 C           3.4030   -3.5000    0.0000 C.ar    1  UNL1       -0.0194
     15 C           5.1350   -3.5000    0.0000 C.ar    1  UNL1       -0.0608
     16 C           4.2690   -4.0000    0.0000 C.ar    1  UNL1       -0.0583
     17 H           5.7890    2.5826    0.0000 H       1  UNL1        0.0266
     18 H           5.3905    1.8923    0.0000 H       1  UNL1        0.0266
     19 H           7.0791    1.9174    0.0000 H       1  UNL1        0.0265
     20 H           7.4776    2.6077    0.0000 H       1  UNL1        0.0265
     21 H           6.2131    0.4174    0.0000 H       1  UNL1        0.0298
     22 H           6.6116    1.1077    0.0000 H       1  UNL1        0.0298
     23 H           6.6550    4.0826    0.0000 H       1  UNL1        0.0263
     24 H           6.2565    3.3923    0.0000 H       1  UNL1        0.0263
     25 H           4.9230    1.0826    0.0000 H       1  UNL1        0.0697
     26 H           4.5244    0.3923    0.0000 H       1  UNL1        0.0697
     27 H           8.0431    3.4631    0.0000 H       1  UNL1        0.0230
     28 H           8.2700    4.3100    0.0000 H       1  UNL1        0.0230
     29 H           7.4231    4.5369    0.0000 H       1  UNL1        0.0230
     30 H           5.6720   -2.1900    0.0000 H       1  UNL1        0.0627
     31 H           2.8660   -3.8100    0.0000 H       1  UNL1        0.0654
     32 H           5.6720   -3.8100    0.0000 H       1  UNL1        0.0618
     33 H           4.2690   -4.6200    0.0000 H       1  UNL1        0.0619
     34 H           2.0000   -2.3100    0.0000 H       1  UNL1        0.2922
@<TRIPOS>BOND
     1     1     8    1
     2     1    10    1
     3     2    10    2
     4     3    12    1
     5     3    34    1
     6     4     5    1
     7     4     6    1
     8     4    17    1
     9     4    18    1
    10     5     7    1
    11     5    19    1
    12     5    20    1
    13     6     8    1
    14     6    21    1
    15     6    22    1
    16     7     9    1
    17     7    23    1
    18     7    24    1
    19     8    25    1
    20     8    26    1
    21     9    27    1
    22     9    28    1
    23     9    29    1
    24    10    11    1
    25    11    12   ar
    26    11    13   ar
    27    12    14   ar
    28    13    15   ar
    29    13    30    1
    30    14    16   ar
    31    14    31    1
    32    15    16   ar
    33    15    32    1
    34    16    33    1
