@<TRIPOS>MOLECULE
IMPHY006142
 53 56 0 0 0
SMALL
GASTEIGER

@<TRIPOS>ATOM
      1 O           5.1350   -1.2857    0.0000 O.3     1  UNL1       -0.3221
      2 O           6.8671   -1.2857    0.0000 O.3     1  UNL1       -0.4532
      3 O           5.1350   -4.2857    0.0000 O.3     1  UNL1       -0.3863
      4 O           6.8671   -3.2857    0.0000 O.3     1  UNL1       -0.3829
      5 O           3.4030   -3.2857    0.0000 O.3     1  UNL1       -0.3860
      6 O           2.5369   -1.7857    0.0000 O.3     1  UNL1       -0.4788
      7 O           7.7331    1.2143    0.0000 O.2     1  UNL1       -0.4507
      8 O           3.4030   -0.2857    0.0000 O.2     1  UNL1       -0.2480
      9 O           5.1350   -0.2857    0.0000 O.2     1  UNL1       -0.2830
     10 O           4.2308    1.2112    0.0000 O.3     1  UNL1       -0.5058
     11 O           5.9889    4.2836    0.0000 O.3     1  UNL1       -0.5065
     12 O           9.4651   -2.7857    0.0000 O.3     1  UNL1       -0.5032
     13 O          11.1972    0.2143    0.0000 O.3     1  UNL1       -0.5032
     14 O          11.1972   -1.7857    0.0000 O.3     1  UNL1       -0.5009
     15 C           5.1350   -3.2857    0.0000 C.3     1  UNL1        0.1157
     16 C           6.0010   -2.7857    0.0000 C.3     1  UNL1        0.1455
     17 C           4.2690   -2.7857    0.0000 C.3     1  UNL1        0.1202
     18 C           6.0010   -1.7857    0.0000 C.3     1  UNL1        0.2316
     19 C           4.2690   -1.7857    0.0000 C.3     1  UNL1        0.1869
     20 C           3.4030   -1.2857    0.0000 C.2     1  UNL1        0.3367
     21 C           6.8671   -0.2857    0.0000 C.ar    1  UNL1        0.2138
     22 C           7.7331    0.2143    0.0000 C.ar    1  UNL1        0.1812
     23 C           6.0010    0.2143    0.0000 C.ar    1  UNL1        0.2382
     24 C           6.0010    1.2143    0.0000 C.ar    1  UNL1        0.1092
     25 C           6.8671    1.7143    0.0000 C.ar    1  UNL1        0.1465
     26 C           8.5991   -0.2857    0.0000 C.ar    1  UNL1        0.0282
     27 C           5.0910    1.7212    0.0000 C.ar    1  UNL1        0.1348
     28 C           6.8831    2.7558    0.0000 C.ar    1  UNL1        0.0231
     29 C           9.4651    0.2143    0.0000 C.ar    1  UNL1       -0.0055
     30 C           8.5991   -1.2857    0.0000 C.ar    1  UNL1       -0.0055
     31 C           5.0830    2.7628    0.0000 C.ar    1  UNL1        0.0223
     32 C           5.9851    3.2836    0.0000 C.ar    1  UNL1        0.1239
     33 C           9.4651   -1.7857    0.0000 C.ar    1  UNL1        0.1626
     34 C          10.3312   -0.2857    0.0000 C.ar    1  UNL1        0.1626
     35 C          10.3312   -1.2857    0.0000 C.ar    1  UNL1        0.2006
     36 H           5.6720   -3.5957    0.0000 H       1  UNL1        0.0648
     37 H           6.5380   -2.4757    0.0000 H       1  UNL1        0.0683
     38 H           4.2690   -3.4057    0.0000 H       1  UNL1        0.0652
     39 H           6.0010   -1.1657    0.0000 H       1  UNL1        0.1084
     40 H           4.2690   -1.1657    0.0000 H       1  UNL1        0.0742
     41 H           5.6720   -4.5957    0.0000 H       1  UNL1        0.2100
     42 H           7.4040   -2.9757    0.0000 H       1  UNL1        0.2102
     43 H           3.4030   -3.9057    0.0000 H       1  UNL1        0.2100
     44 H           2.0000   -1.4757    0.0000 H       1  UNL1        0.2951
     45 H           7.4236    3.0596    0.0000 H       1  UNL1        0.0691
     46 H           9.4651    0.8343    0.0000 H       1  UNL1        0.0662
     47 H           8.0622   -1.5957    0.0000 H       1  UNL1        0.0662
     48 H           4.5449    3.0707    0.0000 H       1  UNL1        0.0691
     49 H           3.6904    1.5150    0.0000 H       1  UNL1        0.2922
     50 H           5.4532    4.5957    0.0000 H       1  UNL1        0.2921
     51 H           8.9282   -3.0957    0.0000 H       1  UNL1        0.2923
     52 H          11.1972    0.8343    0.0000 H       1  UNL1        0.2923
     53 H          11.1972   -2.4057    0.0000 H       1  UNL1        0.2924
@<TRIPOS>BOND
     1     1    18    1
     2     1    19    1
     3    18     2    1
     4     2    21    1
     5    15     3    1
     6     3    41    1
     7    16     4    1
     8     4    42    1
     9    17     5    1
    10     5    43    1
    11     6    20    1
    12     6    44    1
    13     7    22   ar
    14     7    25   ar
    15     8    20    2
    16     9    23    2
    17    10    27    1
    18    10    49    1
    19    11    32    1
    20    11    50    1
    21    12    33    1
    22    12    51    1
    23    13    34    1
    24    13    52    1
    25    14    35    1
    26    14    53    1
    27    15    16    1
    28    15    17    1
    29    15    36    1
    30    16    18    1
    31    16    37    1
    32    17    19    1
    33    17    38    1
    34    18    39    1
    35    19    20    1
    36    19    40    1
    37    21    22   ar
    38    21    23   ar
    39    22    26    1
    40    23    24   ar
    41    24    25   ar
    42    24    27   ar
    43    25    28   ar
    44    26    29   ar
    45    26    30   ar
    46    27    31   ar
    47    28    32   ar
    48    28    45    1
    49    29    34   ar
    50    29    46    1
    51    30    33   ar
    52    30    47    1
    53    31    32   ar
    54    31    48    1
    55    33    35   ar
    56    34    35   ar
