@<TRIPOS>MOLECULE
IMPHY012315
 37 39 0 0 0
SMALL
GASTEIGER

@<TRIPOS>ATOM
      1 O           2.0000    0.5372    0.0000 O.3     1  UNL1       -0.5033
      2 O           2.0000    2.5372    0.0000 O.3     1  UNL1       -0.5033
      3 O           8.9212   -2.5373    0.0000 O.3     1  UNL1       -0.5068
      4 N           6.3981    1.0164    0.0000 N.3     1  UNL1       -0.3087
      5 C           5.4920    0.5026    0.0000 C.3     1  UNL1        0.0372
      6 C           4.5981    1.0372    0.0000 C.ar    1  UNL1       -0.0233
      7 C           4.5981    2.0372    0.0000 C.ar    1  UNL1       -0.0378
      8 C           5.4920    2.5719    0.0000 C.3     1  UNL1       -0.0147
      9 C           6.3981    2.0580    0.0000 C.3     1  UNL1        0.0004
     10 C           5.4804   -0.4974    0.0000 C.3     1  UNL1       -0.0081
     11 C           3.7320    0.5372    0.0000 C.ar    1  UNL1       -0.0116
     12 C           6.3406   -1.0073    0.0000 C.ar    1  UNL1       -0.0453
     13 C           3.7320    2.5372    0.0000 C.ar    1  UNL1       -0.0130
     14 C           2.8660    1.0372    0.0000 C.ar    1  UNL1        0.1585
     15 C           2.8660    2.0372    0.0000 C.ar    1  UNL1        0.1585
     16 C           7.2124   -0.5174    0.0000 C.ar    1  UNL1       -0.0551
     17 C           6.3291   -2.0073    0.0000 C.ar    1  UNL1       -0.0551
     18 C           8.0726   -1.0274    0.0000 C.ar    1  UNL1       -0.0199
     19 C           7.1893   -2.5173    0.0000 C.ar    1  UNL1       -0.0199
     20 C           8.0610   -2.0273    0.0000 C.ar    1  UNL1        0.1169
     21 H           6.0259    0.1874    0.0000 H       1  UNL1        0.0513
     22 H           5.8856    3.0509    0.0000 H       1  UNL1        0.0326
     23 H           5.0874    3.0417    0.0000 H       1  UNL1        0.0326
     24 H           7.0089    1.9520    0.0000 H       1  UNL1        0.0427
     25 H           6.6071    2.6417    0.0000 H       1  UNL1        0.0427
     26 H           4.8712   -0.3826    0.0000 H       1  UNL1        0.0332
     27 H           5.2617   -1.0775    0.0000 H       1  UNL1        0.0332
     28 H           6.9338    0.7044    0.0000 H       1  UNL1        0.1225
     29 H           3.7320   -0.0828    0.0000 H       1  UNL1        0.0658
     30 H           3.7320    3.1572    0.0000 H       1  UNL1        0.0658
     31 H           7.2196    0.1026    0.0000 H       1  UNL1        0.0621
     32 H           5.7886   -2.3110    0.0000 H       1  UNL1        0.0621
     33 H           8.6131   -0.7236    0.0000 H       1  UNL1        0.0654
     34 H           7.1821   -3.1372    0.0000 H       1  UNL1        0.0654
     35 H           2.0000   -0.0828    0.0000 H       1  UNL1        0.2923
     36 H           2.0000    3.1572    0.0000 H       1  UNL1        0.2923
     37 H           8.9140   -3.1572    0.0000 H       1  UNL1        0.2921
@<TRIPOS>BOND
     1     1    14    1
     2     1    35    1
     3     2    15    1
     4     2    36    1
     5     3    20    1
     6     3    37    1
     7     4     5    1
     8     4     9    1
     9     4    28    1
    10     5     6    1
    11     5    10    1
    12     5    21    1
    13     6     7   ar
    14     6    11   ar
    15     7     8    1
    16     7    13   ar
    17     8     9    1
    18     8    22    1
    19     8    23    1
    20     9    24    1
    21     9    25    1
    22    10    12    1
    23    10    26    1
    24    10    27    1
    25    11    14   ar
    26    11    29    1
    27    12    16   ar
    28    12    17   ar
    29    13    15   ar
    30    13    30    1
    31    14    15   ar
    32    16    18   ar
    33    16    31    1
    34    17    19   ar
    35    17    32    1
    36    18    20   ar
    37    18    33    1
    38    19    20   ar
    39    19    34    1
