@<TRIPOS>MOLECULE
IMPHY009786
 63 69 0 0 0
SMALL
GASTEIGER

@<TRIPOS>ATOM
      1 O           3.0172    1.1964    0.0000 O.3     1  UNL1       -0.3365
      2 O           2.8090    0.1546    0.0000 O.3     1  UNL1       -0.3480
      3 O           2.8565   -0.8878    0.0000 O.3     1  UNL1       -0.3707
      4 O           4.5445   -1.8624    0.0000 O.3     1  UNL1       -0.4550
      5 O           6.6649    2.2671    0.0000 O.2     1  UNL1       -0.2756
      6 O           6.7989    4.4422    0.0000 O.3     1  UNL1       -0.4526
      7 O           5.3728    5.2265    0.0000 O.3     1  UNL1       -0.4526
      8 O           6.2766   -1.8624    0.0000 O.2     1  UNL1       -0.2449
      9 N           4.7419    1.9643    0.0000 N.am    1  UNL1       -0.2925
     10 C           4.5445    1.0359    0.0000 C.3     1  UNL1        0.1061
     11 C           5.3665    0.5613    0.0000 C.3     1  UNL1        0.0344
     12 C           3.7226    0.5613    0.0000 C.3     1  UNL1        0.2233
     13 C           4.3472    1.9643    0.0000 C.3     1  UNL1        0.0052
     14 C           5.3665   -0.3878    0.0000 C.3     1  UNL1       -0.0007
     15 C           3.4033    2.0635    0.0000 C.3     1  UNL1        0.0896
     16 C           3.7226   -0.3878    0.0000 C.3     1  UNL1        0.1508
     17 C           6.0719    1.1964    0.0000 C.3     1  UNL1        0.0361
     18 C           5.2617    2.3225    0.0000 C.ar    1  UNL1       -0.0291
     19 C           4.5445   -0.8624    0.0000 C.3     1  UNL1        0.1354
     20 C           4.4180    2.7865    0.0000 C.ar    1  UNL1       -0.0112
     21 C           5.6858    2.0635    0.0000 C.2     1  UNL1        0.2169
     22 C           3.8938    2.4942    0.0000 C.3     1  UNL1        0.0039
     23 C           6.0616    2.8207    0.0000 C.ar    1  UNL1       -0.0120
     24 C           4.3983    3.7355    0.0000 C.ar    1  UNL1       -0.0102
     25 C           6.0419    3.7696    0.0000 C.ar    1  UNL1        0.1665
     26 C           5.2102    4.2270    0.0000 C.ar    1  UNL1        0.1666
     27 C           2.0000    0.7424    0.0000 C.3     1  UNL1        0.0399
     28 C           2.8565   -1.8878    0.0000 C.3     1  UNL1        0.0372
     29 C           5.4106   -2.3624    0.0000 C.2     1  UNL1        0.3395
     30 C           6.3763    5.3624    0.0000 C.3     1  UNL1        0.2332
     31 C           5.4106   -3.3624    0.0000 C.ar    1  UNL1        0.0590
     32 C           6.2766   -3.8624    0.0000 C.ar    1  UNL1       -0.0478
     33 C           4.5446   -3.8624    0.0000 C.ar    1  UNL1       -0.0478
     34 C           6.2766   -4.8624    0.0000 C.ar    1  UNL1       -0.0610
     35 C           4.5446   -4.8624    0.0000 C.ar    1  UNL1       -0.0610
     36 C           5.4106   -5.3624    0.0000 C.ar    1  UNL1       -0.0617
     37 H           4.9638    2.0291    0.0000 H       1  UNL1        0.0316
     38 H           4.3472    2.5843    0.0000 H       1  UNL1        0.0316
     39 H           5.5786   -0.9704    0.0000 H       1  UNL1        0.0311
     40 H           5.9771   -0.2801    0.0000 H       1  UNL1        0.0311
     41 H           2.7452    2.6015    0.0000 H       1  UNL1        0.0648
     42 H           3.7226   -1.0078    0.0000 H       1  UNL1        0.0688
     43 H           6.4363    0.6948    0.0000 H       1  UNL1        0.0368
     44 H           6.6088    1.5064    0.0000 H       1  UNL1        0.0368
     45 H           5.0815   -1.1724    0.0000 H       1  UNL1        0.0762
     46 H           4.2224    3.0200    0.0000 H       1  UNL1        0.0429
     47 H           3.3680    2.8228    0.0000 H       1  UNL1        0.0429
     48 H           3.5653    1.9684    0.0000 H       1  UNL1        0.0429
     49 H           6.6067    2.5253    0.0000 H       1  UNL1        0.0658
     50 H           3.8550    4.0343    0.0000 H       1  UNL1        0.0659
     51 H           2.3644    1.2440    0.0000 H       1  UNL1        0.0525
     52 H           1.4984    1.1068    0.0000 H       1  UNL1        0.0525
     53 H           1.6356    0.2408    0.0000 H       1  UNL1        0.0525
     54 H           2.2365   -1.8878    0.0000 H       1  UNL1        0.0524
     55 H           2.8565   -2.5078    0.0000 H       1  UNL1        0.0524
     56 H           3.4765   -1.8878    0.0000 H       1  UNL1        0.0524
     57 H           6.9625    5.5644    0.0000 H       1  UNL1        0.1166
     58 H           6.2330    5.9656    0.0000 H       1  UNL1        0.1166
     59 H           6.8135   -3.5524    0.0000 H       1  UNL1        0.0626
     60 H           4.0076   -3.5524    0.0000 H       1  UNL1        0.0626
     61 H           6.8135   -5.1724    0.0000 H       1  UNL1        0.0618
     62 H           4.0076   -5.1724    0.0000 H       1  UNL1        0.0618
     63 H           5.4106   -5.9824    0.0000 H       1  UNL1        0.0618
@<TRIPOS>BOND
     1     1    12    1
     2     1    15    1
     3     2    12    1
     4     2    27    1
     5    16     3    1
     6     3    28    1
     7    19     4    1
     8     4    29    1
     9     5    21    2
    10     6    25    1
    11     6    30    1
    12     7    26    1
    13     7    30    1
    14     8    29    2
    15     9    10    1
    16     9    21   am
    17     9    22    1
    18    10    11    1
    19    10    12    1
    20    10    13    1
    21    11    14    1
    22    11    17    1
    23    11    18    1
    24    12    16    1
    25    13    15    1
    26    13    37    1
    27    13    38    1
    28    14    19    1
    29    14    39    1
    30    14    40    1
    31    15    20    1
    32    15    41    1
    33    16    19    1
    34    16    42    1
    35    17    21    1
    36    17    43    1
    37    17    44    1
    38    18    20   ar
    39    18    23   ar
    40    19    45    1
    41    20    24   ar
    42    22    46    1
    43    22    47    1
    44    22    48    1
    45    23    25   ar
    46    23    49    1
    47    24    26   ar
    48    24    50    1
    49    25    26   ar
    50    27    51    1
    51    27    52    1
    52    27    53    1
    53    28    54    1
    54    28    55    1
    55    28    56    1
    56    29    31    1
    57    30    57    1
    58    30    58    1
    59    31    32   ar
    60    31    33   ar
    61    32    34   ar
    62    32    59    1
    63    33    35   ar
    64    33    60    1
    65    34    36   ar
    66    34    61    1
    67    35    36   ar
    68    35    62    1
    69    36    63    1
