@<TRIPOS>MOLECULE
IMPHY002973
 62 63 0 0 0
SMALL
GASTEIGER

@<TRIPOS>ATOM
      1 O           8.0622    4.2500    0.0000 O.3     1  UNL1       -0.4912
      2 O           3.7320   -1.2500    0.0000 O.3     1  UNL1       -0.5055
      3 O           5.4641   -4.2500    0.0000 O.3     1  UNL1       -0.5062
      4 O           7.1962   -1.2500    0.0000 O.3     1  UNL1       -0.5058
      5 O           9.7942    3.2500    0.0000 O.3     1  UNL1       -0.5033
      6 O           4.5981    0.2500    0.0000 O.2     1  UNL1       -0.2870
      7 C           7.1962    2.7500    0.0000 C.ar    1  UNL1        0.0088
      8 C           7.1962    1.7500    0.0000 C.ar    1  UNL1       -0.0177
      9 C           6.3301    3.2500    0.0000 C.3     1  UNL1       -0.0051
     10 C           4.5981   -2.7500    0.0000 C.ar    1  UNL1        0.0400
     11 C           3.7320   -3.2500    0.0000 C.3     1  UNL1       -0.0023
     12 C           5.4641   -1.2500    0.0000 C.ar    1  UNL1        0.1048
     13 C           8.0622    3.2500    0.0000 C.ar    1  UNL1        0.1653
     14 C           4.5981   -1.7500    0.0000 C.ar    1  UNL1        0.1381
     15 C           5.4641   -3.2500    0.0000 C.ar    1  UNL1        0.1273
     16 C           8.0622    1.2500    0.0000 C.ar    1  UNL1       -0.0506
     17 C           6.3301    1.2500    0.0000 C.2     1  UNL1       -0.0506
     18 C           6.3301   -1.7500    0.0000 C.ar    1  UNL1        0.1347
     19 C           6.3301    4.2500    0.0000 C.2     1  UNL1       -0.0808
     20 C           8.9282    2.7500    0.0000 C.ar    1  UNL1        0.1588
     21 C           5.4641   -0.2500    0.0000 C.2     1  UNL1        0.1931
     22 C           6.3301   -2.7500    0.0000 C.ar    1  UNL1        0.0225
     23 C           8.9282    1.7500    0.0000 C.ar    1  UNL1       -0.0159
     24 C           3.7320   -4.2500    0.0000 C.2     1  UNL1       -0.0807
     25 C           6.3301    0.2500    0.0000 C.2     1  UNL1       -0.0135
     26 C           5.4641    4.7500    0.0000 C.2     1  UNL1       -0.0793
     27 C           2.8660   -4.7500    0.0000 C.2     1  UNL1       -0.0793
     28 C           5.4641    5.7500    0.0000 C.3     1  UNL1       -0.0440
     29 C           4.5981    4.2500    0.0000 C.3     1  UNL1       -0.0440
     30 C           2.8660   -5.7500    0.0000 C.3     1  UNL1       -0.0440
     31 C           2.0000   -4.2500    0.0000 C.3     1  UNL1       -0.0440
     32 C           8.9282    4.7500    0.0000 C.3     1  UNL1        0.0790
     33 H           5.7196    3.3577    0.0000 H       1  UNL1        0.0357
     34 H           6.1181    2.6674    0.0000 H       1  UNL1        0.0357
     35 H           3.5200   -2.6674    0.0000 H       1  UNL1        0.0358
     36 H           3.1215   -3.3577    0.0000 H       1  UNL1        0.0358
     37 H           8.0622    0.6300    0.0000 H       1  UNL1        0.0625
     38 H           5.7932    1.5600    0.0000 H       1  UNL1        0.0625
     39 H           6.8671    4.5600    0.0000 H       1  UNL1        0.0575
     40 H           6.8671   -3.0600    0.0000 H       1  UNL1        0.0691
     41 H           9.4651    1.4400    0.0000 H       1  UNL1        0.0655
     42 H           4.2690   -4.5600    0.0000 H       1  UNL1        0.0575
     43 H           6.8671   -0.0600    0.0000 H       1  UNL1        0.0656
     44 H           6.0841    5.7500    0.0000 H       1  UNL1        0.0274
     45 H           4.2881    4.7869    0.0000 H       1  UNL1        0.0274
     46 H           4.0611    3.9400    0.0000 H       1  UNL1        0.0274
     47 H           4.9081    3.7131    0.0000 H       1  UNL1        0.0274
     48 H           5.4641    6.3700    0.0000 H       1  UNL1        0.0274
     49 H           4.8441    5.7500    0.0000 H       1  UNL1        0.0274
     50 H           3.1951   -1.5600    0.0000 H       1  UNL1        0.2922
     51 H           2.3100   -3.7131    0.0000 H       1  UNL1        0.0274
     52 H           1.4631   -3.9400    0.0000 H       1  UNL1        0.0274
     53 H           1.6900   -4.7869    0.0000 H       1  UNL1        0.0274
     54 H           2.2460   -5.7500    0.0000 H       1  UNL1        0.0274
     55 H           2.8660   -6.3700    0.0000 H       1  UNL1        0.0274
     56 H           3.4860   -5.7500    0.0000 H       1  UNL1        0.0274
     57 H           6.0010   -4.5600    0.0000 H       1  UNL1        0.2921
     58 H           7.7331   -1.5600    0.0000 H       1  UNL1        0.2922
     59 H          10.3312    2.9400    0.0000 H       1  UNL1        0.2923
     60 H           9.2382    4.2131    0.0000 H       1  UNL1        0.0660
     61 H           9.4651    5.0600    0.0000 H       1  UNL1        0.0660
     62 H           8.6182    5.2869    0.0000 H       1  UNL1        0.0660
@<TRIPOS>BOND
     1     1    13    1
     2     1    32    1
     3     2    14    1
     4     2    50    1
     5     3    15    1
     6     3    57    1
     7     4    18    1
     8     4    58    1
     9     5    20    1
    10     5    59    1
    11     6    21    2
    12     7     8   ar
    13     7     9    1
    14     7    13   ar
    15     8    16   ar
    16     8    17    1
    17     9    19    1
    18     9    33    1
    19     9    34    1
    20    10    11    1
    21    10    14   ar
    22    10    15   ar
    23    11    24    1
    24    11    35    1
    25    11    36    1
    26    12    14   ar
    27    12    18   ar
    28    12    21    1
    29    13    20   ar
    30    15    22   ar
    31    16    23   ar
    32    16    37    1
    33    17    25    2
    34    17    38    1
    35    18    22   ar
    36    19    26    2
    37    19    39    1
    38    20    23   ar
    39    21    25    1
    40    22    40    1
    41    23    41    1
    42    24    27    2
    43    24    42    1
    44    25    43    1
    45    26    28    1
    46    26    29    1
    47    27    30    1
    48    27    31    1
    49    28    44    1
    50    28    48    1
    51    28    49    1
    52    29    45    1
    53    29    46    1
    54    29    47    1
    55    30    54    1
    56    30    55    1
    57    30    56    1
    58    31    51    1
    59    31    52    1
    60    31    53    1
    61    32    60    1
    62    32    61    1
    63    32    62    1
