@<TRIPOS>MOLECULE
IMPHY003215
 66 68 0 0 0
SMALL
GASTEIGER

@<TRIPOS>ATOM
      1 O           5.1350   -1.3450    0.0000 O.3     1  UNL1       -0.3404
      2 O           6.8671   -1.3450    0.0000 O.3     1  UNL1       -0.3093
      3 O           5.1350   -4.3450    0.0000 O.3     1  UNL1       -0.3864
      4 O           6.8671   -3.3450    0.0000 O.3     1  UNL1       -0.3841
      5 O           6.0010    0.1550    0.0000 O.2     1  UNL1       -0.4699
      6 O           3.4030   -3.3450    0.0000 O.3     1  UNL1       -0.3865
      7 O           2.5369   -1.8450    0.0000 O.3     1  UNL1       -0.3924
      8 O           6.0010    3.1550    0.0000 O.3     1  UNL1       -0.4773
      9 O           7.7331    3.1550    0.0000 O.2     1  UNL1       -0.2454
     10 O          14.6613    1.1550    0.0000 O.3     1  UNL1       -0.3887
     11 O          12.0632    4.6550    0.0000 O.co2   1  UNL1       -0.5444
     12 O          10.3312    4.6550    0.0000 O.co2   1  UNL1       -0.5444
     13 N          12.0632    1.6550    0.0000 N.ar    1  UNL1       -0.2004
     14 C           5.1350   -3.3450    0.0000 C.3     1  UNL1        0.1141
     15 C           6.0010   -2.8450    0.0000 C.3     1  UNL1        0.1342
     16 C           4.2690   -2.8450    0.0000 C.3     1  UNL1        0.1119
     17 C           6.0010   -1.8450    0.0000 C.3     1  UNL1        0.1918
     18 C           4.2690   -1.8450    0.0000 C.3     1  UNL1        0.1130
     19 C           7.7331    0.1550    0.0000 C.3     1  UNL1        0.0501
     20 C           6.8671   -0.3450    0.0000 C.3     1  UNL1        0.2105
     21 C           7.7331    1.1550    0.0000 C.3     1  UNL1        0.0241
     22 C           3.4030   -1.3450    0.0000 C.3     1  UNL1        0.0730
     23 C           6.8671    1.6550    0.0000 C.2     1  UNL1        0.0781
     24 C           8.5991   -0.3450    0.0000 C.2     1  UNL1       -0.0813
     25 C           8.5991    1.6550    0.0000 C.2     1  UNL1       -0.0748
     26 C           6.0010    1.1550    0.0000 C.2     1  UNL1        0.0984
     27 C           6.8671    2.6550    0.0000 C.2     1  UNL1        0.3363
     28 C           9.4651    1.1550    0.0000 C.2     1  UNL1       -0.0523
     29 C           8.5991   -1.3450    0.0000 C.2     1  UNL1       -0.1021
     30 C          10.3312    1.6550    0.0000 C.ar    1  UNL1        0.0390
     31 C          11.1972    1.1550    0.0000 C.ar    1  UNL1        0.1785
     32 C          10.3312    2.6550    0.0000 C.ar    1  UNL1       -0.0344
     33 C          11.1972    3.1550    0.0000 C.ar    1  UNL1        0.0615
     34 C          12.0632    2.6550    0.0000 C.ar    1  UNL1        0.1802
     35 C          12.9292    1.1550    0.0000 C.3     1  UNL1        0.1733
     36 C          13.7953    1.6550    0.0000 C.3     1  UNL1        0.1035
     37 C          11.1972    4.1550    0.0000 C.2     1  UNL1        0.0773
     38 H           5.6720   -3.6550    0.0000 H       1  UNL1        0.0648
     39 H           6.5380   -2.5350    0.0000 H       1  UNL1        0.0671
     40 H           4.2690   -3.4650    0.0000 H       1  UNL1        0.0647
     41 H           6.0010   -1.2250    0.0000 H       1  UNL1        0.0939
     42 H           4.2690   -1.2250    0.0000 H       1  UNL1        0.0647
     43 H           8.2700    0.4650    0.0000 H       1  UNL1        0.0413
     44 H           7.4040   -0.6550    0.0000 H       1  UNL1        0.1062
     45 H           7.7331    1.7750    0.0000 H       1  UNL1        0.0402
     46 H           3.8015   -0.8701    0.0000 H       1  UNL1        0.0584
     47 H           3.0044   -0.8701    0.0000 H       1  UNL1        0.0584
     48 H           9.1360   -0.0350    0.0000 H       1  UNL1        0.0571
     49 H           4.5981   -4.6550    0.0000 H       1  UNL1        0.2100
     50 H           6.8671   -3.9650    0.0000 H       1  UNL1        0.2101
     51 H           3.4030   -3.9650    0.0000 H       1  UNL1        0.2100
     52 H           8.5991    2.2750    0.0000 H       1  UNL1        0.0579
     53 H           5.4641    1.4650    0.0000 H       1  UNL1        0.1029
     54 H           2.0000   -1.5350    0.0000 H       1  UNL1        0.2095
     55 H           9.4651    0.5350    0.0000 H       1  UNL1        0.0622
     56 H           8.0622   -1.6550    0.0000 H       1  UNL1        0.0532
     57 H           9.1360   -1.6550    0.0000 H       1  UNL1        0.0532
     58 H          11.1972    0.5350    0.0000 H       1  UNL1        0.1382
     59 H           9.7942    2.9650    0.0000 H       1  UNL1        0.0634
     60 H           6.0010    3.7750    0.0000 H       1  UNL1        0.2954
     61 H          12.6002    2.9650    0.0000 H       1  UNL1        0.1383
     62 H          12.5307    0.6801    0.0000 H       1  UNL1        0.1054
     63 H          13.3278    0.6801    0.0000 H       1  UNL1        0.1054
     64 H          14.1938    2.1300    0.0000 H       1  UNL1        0.0621
     65 H          13.3967    2.1300    0.0000 H       1  UNL1        0.0621
     66 H          15.1982    1.4650    0.0000 H       1  UNL1        0.2097
@<TRIPOS>UNITY_ATOM_ATTR
11 1
charge -1
13 1
charge 1
@<TRIPOS>BOND
     1     1    17    1
     2     1    18    1
     3    17     2    1
     4    20     2    1
     5    14     3    1
     6     3    49    1
     7    15     4    1
     8     4    50    1
     9     5    20    1
    10     5    26    1
    11    16     6    1
    12     6    51    1
    13     7    22    1
    14     7    54    1
    15     8    27    1
    16     8    60    1
    17     9    27    2
    18    10    36    1
    19    10    66    1
    20    11    37   ar
    21    12    37   ar
    22    13    31   ar
    23    13    34   ar
    24    13    35    1
    25    14    15    1
    26    14    16    1
    27    14    38    1
    28    15    17    1
    29    15    39    1
    30    16    18    1
    31    16    40    1
    32    17    41    1
    33    18    22    1
    34    18    42    1
    35    19    20    1
    36    19    21    1
    37    19    24    1
    38    19    43    1
    39    20    44    1
    40    21    23    1
    41    21    25    1
    42    21    45    1
    43    22    46    1
    44    22    47    1
    45    23    26    2
    46    23    27    1
    47    24    29    2
    48    24    48    1
    49    25    28    2
    50    25    52    1
    51    26    53    1
    52    28    30    1
    53    28    55    1
    54    29    56    1
    55    29    57    1
    56    30    31   ar
    57    30    32   ar
    58    31    58    1
    59    32    33   ar
    60    32    59    1
    61    33    34   ar
    62    33    37    1
    63    34    61    1
    64    35    36    1
    65    35    62    1
    66    35    63    1
    67    36    64    1
    68    36    65    1
