@<TRIPOS>MOLECULE
IMPHY007069
 20 20 0 0 0
SMALL
GASTEIGER

@<TRIPOS>ATOM
      1 O           2.0000    2.2500    0.0000 O.2     1  UNL1       -0.2924
      2 C           2.8660    0.7500    0.0000 C.ar    1  UNL1        0.0171
      3 C           2.8660   -1.2500    0.0000 C.ar    1  UNL1       -0.0504
      4 C           2.0000    0.2500    0.0000 C.ar    1  UNL1       -0.0510
      5 C           3.7320    0.2500    0.0000 C.ar    1  UNL1       -0.0510
      6 C           2.0000   -0.7500    0.0000 C.ar    1  UNL1       -0.0582
      7 C           3.7320   -0.7500    0.0000 C.ar    1  UNL1       -0.0582
      8 C           2.8660    1.7500    0.0000 C.2     1  UNL1        0.1601
      9 C           2.8660   -2.2500    0.0000 C.3     1  UNL1       -0.0397
     10 C           3.7320    2.2500    0.0000 C.3     1  UNL1       -0.0014
     11 H           1.4631    0.5600    0.0000 H       1  UNL1        0.0625
     12 H           4.2690    0.5600    0.0000 H       1  UNL1        0.0625
     13 H           1.4631   -1.0600    0.0000 H       1  UNL1        0.0620
     14 H           4.2690   -1.0600    0.0000 H       1  UNL1        0.0620
     15 H           2.2460   -2.2500    0.0000 H       1  UNL1        0.0278
     16 H           2.8660   -2.8700    0.0000 H       1  UNL1        0.0278
     17 H           3.4860   -2.2500    0.0000 H       1  UNL1        0.0278
     18 H           4.0420    1.7131    0.0000 H       1  UNL1        0.0309
     19 H           4.2690    2.5600    0.0000 H       1  UNL1        0.0309
     20 H           3.4220    2.7869    0.0000 H       1  UNL1        0.0309
@<TRIPOS>BOND
     1     1     8    2
     2     2     4   ar
     3     2     5   ar
     4     2     8    1
     5     3     6   ar
     6     3     7   ar
     7     3     9    1
     8     4     6   ar
     9     4    11    1
    10     5     7   ar
    11     5    12    1
    12     6    13    1
    13     7    14    1
    14     8    10    1
    15     9    15    1
    16     9    16    1
    17     9    17    1
    18    10    18    1
    19    10    19    1
    20    10    20    1
