@<TRIPOS>MOLECULE
IMPHY008571
 48 53 0 0 0
SMALL
GASTEIGER

@<TRIPOS>ATOM
      1 O           7.3402   -2.7380    0.0000 O.3     1  UNL1       -0.3523
      2 O           5.1152   -3.1815    0.0000 O.3     1  UNL1       -0.4586
      3 O           2.8641    0.9035    0.0000 O.3     1  UNL1       -0.4562
      4 O           6.6793   -3.9832    0.0000 O.2     1  UNL1       -0.2474
      5 O           2.0000   -0.6849    0.0000 O.2     1  UNL1       -0.2505
      6 O           3.3373    3.9832    0.0000 O.2     1  UNL1       -0.4706
      7 C           5.6079   -1.7376    0.0000 C.3     1  UNL1        0.0502
      8 C           6.4739   -2.2376    0.0000 C.3     1  UNL1        0.2005
      9 C           5.6079   -0.7376    0.0000 C.3     1  UNL1       -0.0226
     10 C           7.3399   -1.7376    0.0000 C.3     1  UNL1        0.1003
     11 C           4.7140   -0.2029    0.0000 C.3     1  UNL1       -0.0118
     12 C           4.7140   -2.2722    0.0000 C.3     1  UNL1        0.1128
     13 C           6.4739   -0.2376    0.0000 C.3     1  UNL1       -0.0465
     14 C           3.8079   -0.7168    0.0000 C.3     1  UNL1        0.0656
     15 C           7.3399   -0.7376    0.0000 C.3     1  UNL1       -0.0230
     16 C           3.8079   -1.7584    0.0000 C.3     1  UNL1       -0.0016
     17 C           6.1088   -3.1619    0.0000 C.2     1  UNL1        0.3430
     18 C           4.7419   -1.2376    0.0000 C.3     1  UNL1       -0.0526
     19 C           4.7390    0.8818    0.0000 C.3     1  UNL1       -0.0049
     20 C           5.5838    0.2904    0.0000 C.3     1  UNL1       -0.0584
     21 C           2.8641   -0.1815    0.0000 C.2     1  UNL1        0.3114
     22 C           3.8079    1.4387    0.0000 C.3     1  UNL1        0.1315
     23 C           3.8194    2.4386    0.0000 C.ar    1  UNL1        0.0304
     24 C           4.6352    3.0170    0.0000 C.ar    1  UNL1       -0.0172
     25 C           3.0173    3.0358    0.0000 C.ar    1  UNL1        0.0983
     26 C           4.3372    3.9716    0.0000 C.ar    1  UNL1        0.0921
     27 H           6.3440   -1.1626    0.0000 H       1  UNL1        0.0314
     28 H           8.1899   -1.7375    0.0000 H       1  UNL1        0.0631
     29 H           4.0835   -2.8424    0.0000 H       1  UNL1        0.0741
     30 H           6.8724    0.2374    0.0000 H       1  UNL1        0.0269
     31 H           6.0754    0.2374    0.0000 H       1  UNL1        0.0269
     32 H           3.0734   -1.1446    0.0000 H       1  UNL1        0.0420
     33 H           7.9505   -0.8452    0.0000 H       1  UNL1        0.0291
     34 H           7.5520   -0.1550    0.0000 H       1  UNL1        0.0291
     35 H           3.1970   -1.6523    0.0000 H       1  UNL1        0.0309
     36 H           3.5988   -2.3421    0.0000 H       1  UNL1        0.0309
     37 H           5.0519   -0.7006    0.0000 H       1  UNL1        0.0237
     38 H           4.2049   -0.9276    0.0000 H       1  UNL1        0.0237
     39 H           4.4319   -1.7745    0.0000 H       1  UNL1        0.0237
     40 H           5.3473    0.7616    0.0000 H       1  UNL1        0.0310
     41 H           4.9615    1.4605    0.0000 H       1  UNL1        0.0310
     42 H           5.8896   -0.2489    0.0000 H       1  UNL1        0.0235
     43 H           6.1231    0.5963    0.0000 H       1  UNL1        0.0235
     44 H           5.2780    0.8297    0.0000 H       1  UNL1        0.0235
     45 H           3.2740    1.7539    0.0000 H       1  UNL1        0.0786
     46 H           5.2226    2.8186    0.0000 H       1  UNL1        0.0653
     47 H           2.4254    2.8510    0.0000 H       1  UNL1        0.1033
     48 H           4.7074    4.4690    0.0000 H       1  UNL1        0.1029
@<TRIPOS>BOND
     1     8     1    1
     2     1    10    1
     3     2    12    1
     4     2    17    1
     5     3    21    1
     6     3    22    1
     7     4    17    2
     8     5    21    2
     9     6    25   ar
    10     6    26   ar
    11     7     8    1
    12     7     9    1
    13     7    12    1
    14     7    18    1
    15     8    10    1
    16     8    17    1
    17     9    11    1
    18     9    13    1
    19     9    27    1
    20    10    15    1
    21    10    28    1
    22    11    14    1
    23    11    19    1
    24    11    20    1
    25    12    16    1
    26    12    29    1
    27    13    15    1
    28    13    30    1
    29    13    31    1
    30    14    16    1
    31    14    21    1
    32    14    32    1
    33    15    33    1
    34    15    34    1
    35    16    35    1
    36    16    36    1
    37    18    37    1
    38    18    38    1
    39    18    39    1
    40    19    22    1
    41    19    40    1
    42    19    41    1
    43    20    42    1
    44    20    43    1
    45    20    44    1
    46    22    23    1
    47    22    45    1
    48    23    24   ar
    49    23    25   ar
    50    24    26   ar
    51    24    46    1
    52    25    47    1
    53    26    48    1
