@<TRIPOS>MOLECULE
IMPHY007782
 82 86 0 0 0
SMALL
GASTEIGER

@<TRIPOS>ATOM
      1 O           2.5357   -1.8922    0.0000 O.3     1  UNL1       -0.3912
      2 O          11.5367    1.2129    0.0000 O.3     1  UNL1       -0.3908
      3 O           4.3500   -3.6701    0.0000 O.3     1  UNL1       -0.3944
      4 O          10.6064   -0.3123    0.0000 O.3     1  UNL1       -0.3941
      5 C           7.0628   -0.3398    0.0000 C.3     1  UNL1       -0.0159
      6 C           5.2868   -0.3467    0.0000 C.3     1  UNL1       -0.0217
      7 C           6.1968    0.1601    0.0000 C.3     1  UNL1       -0.0107
      8 C           5.2787   -1.3883    0.0000 C.3     1  UNL1       -0.0252
      9 C           7.9288    0.1601    0.0000 C.3     1  UNL1       -0.0011
     10 C           7.0789   -1.3814    0.0000 C.3     1  UNL1       -0.0460
     11 C           4.3433   -1.9380    0.0000 C.3     1  UNL1        0.0203
     12 C           6.1808   -1.9091    0.0000 C.3     1  UNL1       -0.0485
     13 C           4.3599    0.2174    0.0000 C.3     1  UNL1       -0.0444
     14 C           7.9288    1.1602    0.0000 C.2     1  UNL1       -0.0413
     15 C           8.8228   -0.3745    0.0000 C.3     1  UNL1       -0.0422
     16 C           9.7288    1.1810    0.0000 C.3     1  UNL1        0.0413
     17 C           3.4037   -1.3955    0.0000 C.3     1  UNL1        0.0630
     18 C           7.7056   -1.1059    0.0000 C.3     1  UNL1       -0.0582
     19 C           6.1968    1.1602    0.0000 C.2     1  UNL1       -0.0796
     20 C           3.4120   -0.3106    0.0000 C.3     1  UNL1       -0.0257
     21 C           8.8228    1.6948    0.0000 C.2     1  UNL1       -0.0546
     22 C           5.2945    0.6533    0.0000 C.3     1  UNL1       -0.0587
     23 C           9.7288    0.1393    0.0000 C.3     1  UNL1       -0.0384
     24 C           8.2709   -0.7795    0.0000 C.3     1  UNL1       -0.0550
     25 C           7.0628    1.6602    0.0000 C.2     1  UNL1       -0.0617
     26 C           3.8467   -2.8060    0.0000 C.3     1  UNL1        0.0522
     27 C          10.6726    1.7162    0.0000 C.3     1  UNL1        0.0671
     28 C           4.8466   -2.8021    0.0000 C.3     1  UNL1       -0.0548
     29 C           8.7977    2.7795    0.0000 C.3     1  UNL1       -0.0252
     30 C           9.7288    3.3364    0.0000 C.3     1  UNL1       -0.0288
     31 C          10.6726    2.8012    0.0000 C.3     1  UNL1       -0.0205
     32 C          10.5987    0.6877    0.0000 C.3     1  UNL1        0.0559
     33 C          10.2188    4.2082    0.0000 C.3     1  UNL1       -0.0594
     34 C           9.2188    4.1966    0.0000 C.3     1  UNL1       -0.0594
     35 H           6.9329    0.5851    0.0000 H       1  UNL1        0.0354
     36 H           5.2820   -2.2383    0.0000 H       1  UNL1        0.0313
     37 H           7.2969   -1.9618    0.0000 H       1  UNL1        0.0271
     38 H           7.6880   -1.2659    0.0000 H       1  UNL1        0.0271
     39 H           5.7835   -2.3851    0.0000 H       1  UNL1        0.0268
     40 H           6.5818   -2.3820    0.0000 H       1  UNL1        0.0268
     41 H           4.7681    0.6840    0.0000 H       1  UNL1        0.0272
     42 H           3.9700    0.6994    0.0000 H       1  UNL1        0.0272
     43 H           8.4182   -0.8443    0.0000 H       1  UNL1        0.0274
     44 H           9.2164   -0.8535    0.0000 H       1  UNL1        0.0274
     45 H           3.4025   -2.0155    0.0000 H       1  UNL1        0.0599
     46 H           7.2306   -1.5044    0.0000 H       1  UNL1        0.0236
     47 H           8.1041   -1.5808    0.0000 H       1  UNL1        0.0236
     48 H           8.1805   -0.7074    0.0000 H       1  UNL1        0.0236
     49 H           5.6598    1.4702    0.0000 H       1  UNL1        0.0575
     50 H           3.2075    0.2747    0.0000 H       1  UNL1        0.0290
     51 H           2.8004   -0.4119    0.0000 H       1  UNL1        0.0290
     52 H           5.9145    0.6485    0.0000 H       1  UNL1        0.0235
     53 H           5.2993    1.2733    0.0000 H       1  UNL1        0.0235
     54 H           4.6745    0.6581    0.0000 H       1  UNL1        0.0235
     55 H           9.9379   -0.4444    0.0000 H       1  UNL1        0.0275
     56 H          10.3397    0.2454    0.0000 H       1  UNL1        0.0275
     57 H           7.6884   -0.9916    0.0000 H       1  UNL1        0.0238
     58 H           8.4830   -1.3621    0.0000 H       1  UNL1        0.0238
     59 H           8.8535   -0.5674    0.0000 H       1  UNL1        0.0238
     60 H           7.0628    2.2802    0.0000 H       1  UNL1        0.0617
     61 H          11.2101    2.0252    0.0000 H       1  UNL1        0.0603
     62 H           3.3702   -2.4093    0.0000 H       1  UNL1        0.0563
     63 H           3.3732   -3.2063    0.0000 H       1  UNL1        0.0563
     64 H           4.3109   -3.1142    0.0000 H       1  UNL1        0.0237
     65 H           5.1587   -3.3378    0.0000 H       1  UNL1        0.0237
     66 H           5.3824   -2.4900    0.0000 H       1  UNL1        0.0237
     67 H           8.5752    3.3582    0.0000 H       1  UNL1        0.0316
     68 H           8.1894    2.6593    0.0000 H       1  UNL1        0.0316
     69 H          11.2835    2.6951    0.0000 H       1  UNL1        0.0296
     70 H          10.8817    3.3849    0.0000 H       1  UNL1        0.0296
     71 H          11.2101    0.5847    0.0000 H       1  UNL1        0.0567
     72 H          10.8062    1.2719    0.0000 H       1  UNL1        0.0567
     73 H           2.0000   -1.5801    0.0000 H       1  UNL1        0.2098
     74 H          10.7593    3.9044    0.0000 H       1  UNL1        0.0235
     75 H           9.7522    4.5128    0.0000 H       1  UNL1        0.0235
     76 H           8.9027    4.7299    0.0000 H       1  UNL1        0.0235
     77 H           8.6855    3.8804    0.0000 H       1  UNL1        0.0235
     78 H          10.5226    4.7487    0.0000 H       1  UNL1        0.0235
     79 H           9.6783    4.5120    0.0000 H       1  UNL1        0.0235
     80 H          12.0748    1.5208    0.0000 H       1  UNL1        0.2098
     81 H           4.0421   -4.2082    0.0000 H       1  UNL1        0.2094
     82 H          11.1457   -0.6182    0.0000 H       1  UNL1        0.2094
@<TRIPOS>BOND
     1    17     1    1
     2     1    73    1
     3    27     2    1
     4     2    80    1
     5     3    26    1
     6     3    81    1
     7     4    32    1
     8     4    82    1
     9     5     7    1
    10     5     9    1
    11     5    10    1
    12     5    18    1
    13     6     7    1
    14     6     8    1
    15     6    13    1
    16     6    22    1
    17     7    19    1
    18     7    35    1
    19     8    11    1
    20     8    12    1
    21     8    36    1
    22     9    14    1
    23     9    15    1
    24     9    24    1
    25    10    12    1
    26    10    37    1
    27    10    38    1
    28    11    17    1
    29    11    26    1
    30    11    28    1
    31    12    39    1
    32    12    40    1
    33    13    20    1
    34    13    41    1
    35    13    42    1
    36    14    21    2
    37    14    25    1
    38    15    23    1
    39    15    43    1
    40    15    44    1
    41    16    21    1
    42    16    23    1
    43    16    27    1
    44    16    32    1
    45    17    20    1
    46    17    45    1
    47    18    46    1
    48    18    47    1
    49    18    48    1
    50    19    25    2
    51    19    49    1
    52    20    50    1
    53    20    51    1
    54    21    29    1
    55    22    52    1
    56    22    53    1
    57    22    54    1
    58    23    55    1
    59    23    56    1
    60    24    57    1
    61    24    58    1
    62    24    59    1
    63    25    60    1
    64    26    62    1
    65    26    63    1
    66    27    31    1
    67    27    61    1
    68    28    64    1
    69    28    65    1
    70    28    66    1
    71    29    30    1
    72    29    67    1
    73    29    68    1
    74    30    31    1
    75    30    33    1
    76    30    34    1
    77    31    69    1
    78    31    70    1
    79    32    71    1
    80    32    72    1
    81    33    74    1
    82    33    78    1
    83    33    79    1
    84    34    75    1
    85    34    76    1
    86    34    77    1
