@<TRIPOS>MOLECULE
IMPHY003227
 39 40 0 0 0
SMALL
GASTEIGER

@<TRIPOS>ATOM
      1 O           4.2690   -0.1550    0.0000 O.3     1  UNL1       -0.3405
      2 O           6.0010   -0.1550    0.0000 O.3     1  UNL1       -0.3262
      3 O           4.2690   -3.1550    0.0000 O.3     1  UNL1       -0.3864
      4 O           2.5369   -2.1550    0.0000 O.3     1  UNL1       -0.3865
      5 O           6.0010   -2.1550    0.0000 O.3     1  UNL1       -0.3841
      6 O           2.5369    0.8450    0.0000 O.3     1  UNL1       -0.3924
      7 O           9.4651    2.8450    0.0000 O.3     1  UNL1       -0.5068
      8 N           4.2690    1.8450    0.0000 N.1     1  UNL1       -0.1935
      9 C           4.2690   -2.1550    0.0000 C.3     1  UNL1        0.1141
     10 C           3.4030   -1.6550    0.0000 C.3     1  UNL1        0.1119
     11 C           5.1350   -1.6550    0.0000 C.3     1  UNL1        0.1342
     12 C           3.4030   -0.6550    0.0000 C.3     1  UNL1        0.1130
     13 C           5.1350   -0.6550    0.0000 C.3     1  UNL1        0.1899
     14 C           2.5369   -0.1550    0.0000 C.3     1  UNL1        0.0730
     15 C           6.0010    0.8450    0.0000 C.3     1  UNL1        0.1722
     16 C           6.8671    1.3450    0.0000 C.ar    1  UNL1       -0.0047
     17 C           7.7331    0.8450    0.0000 C.ar    1  UNL1       -0.0517
     18 C           6.8671    2.3450    0.0000 C.ar    1  UNL1       -0.0517
     19 C           5.1350    1.3450    0.0000 C.1     1  UNL1        0.0992
     20 C           8.5991    1.3450    0.0000 C.ar    1  UNL1       -0.0198
     21 C           7.7331    2.8450    0.0000 C.ar    1  UNL1       -0.0198
     22 C           8.5991    2.3450    0.0000 C.ar    1  UNL1        0.1169
     23 H           4.8059   -2.4650    0.0000 H       1  UNL1        0.0648
     24 H           3.4030   -2.2750    0.0000 H       1  UNL1        0.0647
     25 H           5.6720   -1.3450    0.0000 H       1  UNL1        0.0671
     26 H           3.4030   -0.0350    0.0000 H       1  UNL1        0.0647
     27 H           5.1350   -0.0350    0.0000 H       1  UNL1        0.0938
     28 H           1.9264   -0.0473    0.0000 H       1  UNL1        0.0584
     29 H           2.3249   -0.7376    0.0000 H       1  UNL1        0.0584
     30 H           3.7320   -3.4650    0.0000 H       1  UNL1        0.2100
     31 H           2.0000   -1.8450    0.0000 H       1  UNL1        0.2100
     32 H           6.5380   -1.8450    0.0000 H       1  UNL1        0.2101
     33 H           6.5380    0.5350    0.0000 H       1  UNL1        0.0808
     34 H           2.0000    1.1550    0.0000 H       1  UNL1        0.2095
     35 H           7.7331    0.2250    0.0000 H       1  UNL1        0.0623
     36 H           6.3301    2.6550    0.0000 H       1  UNL1        0.0623
     37 H           9.1360    1.0350    0.0000 H       1  UNL1        0.0654
     38 H           7.7331    3.4650    0.0000 H       1  UNL1        0.0654
     39 H           9.4651    3.4650    0.0000 H       1  UNL1        0.2921
@<TRIPOS>BOND
     1     1    12    1
     2     1    13    1
     3    13     2    1
     4    15     2    1
     5     9     3    1
     6     3    30    1
     7    10     4    1
     8     4    31    1
     9    11     5    1
    10     5    32    1
    11     6    14    1
    12     6    34    1
    13     7    22    1
    14     7    39    1
    15     8    19    3
    16     9    10    1
    17     9    11    1
    18     9    23    1
    19    10    12    1
    20    10    24    1
    21    11    13    1
    22    11    25    1
    23    12    14    1
    24    12    26    1
    25    13    27    1
    26    14    28    1
    27    14    29    1
    28    15    16    1
    29    15    19    1
    30    15    33    1
    31    16    17   ar
    32    16    18   ar
    33    17    20   ar
    34    17    35    1
    35    18    21   ar
    36    18    36    1
    37    20    22   ar
    38    20    37    1
    39    21    22   ar
    40    21    38    1
