@<TRIPOS>MOLECULE
IMPHY016289
 18 18 0 0 0
SMALL
GASTEIGER

@<TRIPOS>ATOM
      1 S           2.8660   -1.0000    0.0000 S.3     1  UNL1       -0.1424
      2 S           3.7320    0.5000    0.0000 S.3     1  UNL1       -0.1424
      3 C           2.0000    0.5000    0.0000 C.3     1  UNL1       -0.0349
      4 C           2.0000   -0.5000    0.0000 C.3     1  UNL1       -0.0042
      5 C           2.8660    1.0000    0.0000 C.3     1  UNL1       -0.0042
      6 C           3.7320   -0.5000    0.0000 C.3     1  UNL1        0.0687
      7 C           4.5981   -1.0000    0.0000 C.2     1  UNL1       -0.0686
      8 C           5.4641   -0.5000    0.0000 C.2     1  UNL1       -0.1008
      9 H           1.7880    1.0826    0.0000 H       1  UNL1        0.0281
     10 H           1.3894    0.3923    0.0000 H       1  UNL1        0.0281
     11 H           1.3894   -0.3923    0.0000 H       1  UNL1        0.0377
     12 H           1.7880   -1.0826    0.0000 H       1  UNL1        0.0377
     13 H           3.2646    1.4750    0.0000 H       1  UNL1        0.0377
     14 H           2.4675    1.4750    0.0000 H       1  UNL1        0.0377
     15 H           3.7320   -1.1200    0.0000 H       1  UNL1        0.0569
     16 H           4.5981   -1.6200    0.0000 H       1  UNL1        0.0585
     17 H           6.0010   -0.8100    0.0000 H       1  UNL1        0.0532
     18 H           5.4641    0.1200    0.0000 H       1  UNL1        0.0532
@<TRIPOS>BOND
     1     1     4    1
     2     1     6    1
     3     2     5    1
     4     2     6    1
     5     3     4    1
     6     3     5    1
     7     3     9    1
     8     3    10    1
     9     4    11    1
    10     4    12    1
    11     5    13    1
    12     5    14    1
    13     6     7    1
    14     6    15    1
    15     7     8    2
    16     7    16    1
    17     8    17    1
    18     8    18    1
