@<TRIPOS>MOLECULE
IMPHY007420
 32 34 0 0 0
SMALL
GASTEIGER

@<TRIPOS>ATOM
      1 O           2.7493   -1.0043    0.0000 O.3     1  UNL1       -0.5063
      2 O           2.0000    2.4554    0.0000 O.3     1  UNL1       -0.4950
      3 O           4.8717   -3.4052    0.0000 O.2     1  UNL1       -0.2879
      4 C           4.8717   -0.4052    0.0000 C.3     1  UNL1        0.0365
      5 C           5.6808    0.1826    0.0000 C.3     1  UNL1       -0.0322
      6 C           4.0627    0.1826    0.0000 C.ar    1  UNL1        0.0111
      7 C           5.3717    1.1336    0.0000 C.3     1  UNL1       -0.0258
      8 C           4.3717    1.1336    0.0000 C.ar    1  UNL1       -0.0361
      9 C           5.7378   -0.9052    0.0000 C.2     1  UNL1       -0.0661
     10 C           4.0057   -0.9052    0.0000 C.2     1  UNL1       -0.0661
     11 C           3.0473   -0.0497    0.0000 C.ar    1  UNL1        0.1249
     12 C           3.6868    1.9184    0.0000 C.ar    1  UNL1       -0.0162
     13 C           4.0057   -1.9052    0.0000 C.2     1  UNL1       -0.0177
     14 C           5.7378   -1.9052    0.0000 C.2     1  UNL1       -0.0177
     15 C           2.3444    0.7190    0.0000 C.ar    1  UNL1        0.0219
     16 C           2.6663    1.7096    0.0000 C.ar    1  UNL1        0.1238
     17 C           4.8717   -2.4052    0.0000 C.2     1  UNL1        0.1785
     18 C           2.3127    3.4052    0.0000 C.3     1  UNL1        0.0788
     19 H           5.9908   -0.3544    0.0000 H       1  UNL1        0.0283
     20 H           6.2472    0.4347    0.0000 H       1  UNL1        0.0283
     21 H           5.9782    1.2625    0.0000 H       1  UNL1        0.0314
     22 H           5.3069    1.7502    0.0000 H       1  UNL1        0.0314
     23 H           6.2747   -0.5952    0.0000 H       1  UNL1        0.0585
     24 H           3.4688   -0.5952    0.0000 H       1  UNL1        0.0585
     25 H           3.8852    2.5058    0.0000 H       1  UNL1        0.0657
     26 H           6.2747   -2.2152    0.0000 H       1  UNL1        0.0653
     27 H           3.4688   -2.2152    0.0000 H       1  UNL1        0.0653
     28 H           1.7384    0.5878    0.0000 H       1  UNL1        0.0691
     29 H           2.1444   -1.1402    0.0000 H       1  UNL1        0.2921
     30 H           2.9016    3.2114    0.0000 H       1  UNL1        0.0660
     31 H           2.5065    3.9941    0.0000 H       1  UNL1        0.0660
     32 H           1.7238    3.5991    0.0000 H       1  UNL1        0.0660
@<TRIPOS>BOND
     1     1    11    1
     2     1    29    1
     3     2    16    1
     4     2    18    1
     5     3    17    2
     6     4     5    1
     7     4     6    1
     8     4     9    1
     9     4    10    1
    10     5     7    1
    11     5    19    1
    12     5    20    1
    13     6     8   ar
    14     6    11   ar
    15     7     8    1
    16     7    21    1
    17     7    22    1
    18     8    12   ar
    19     9    14    2
    20     9    23    1
    21    10    13    2
    22    10    24    1
    23    11    15   ar
    24    12    16   ar
    25    12    25    1
    26    13    17    1
    27    13    27    1
    28    14    17    1
    29    14    26    1
    30    15    16   ar
    31    15    28    1
    32    18    30    1
    33    18    31    1
    34    18    32    1
