@<TRIPOS>MOLECULE
IMPHY001831
 86 92 0 0 0
SMALL
GASTEIGER

@<TRIPOS>ATOM
      1 O           9.5972    1.9337    0.0000 O.3     1  UNL1       -0.3828
      2 O           9.6703    0.2974    0.0000 O.3     1  UNL1       -0.3852
      3 O           6.3301   -0.8448    0.0000 O.3     1  UNL1       -0.4530
      4 O           6.3301    2.8904    0.0000 O.3     1  UNL1       -0.3791
      5 O          10.0465    2.6388    0.0000 O.3     1  UNL1       -0.3765
      6 O          10.4478    3.3483    0.0000 O.3     1  UNL1       -0.3793
      7 O           4.5981   -0.8448    0.0000 O.2     1  UNL1       -0.2449
      8 O           2.8660   -3.8448    0.0000 O.2     1  UNL1       -0.2758
      9 N           5.1348    1.0613    0.0000 N.3     1  UNL1       -0.2949
     10 N           3.7320   -2.3448    0.0000 N.am    1  UNL1       -0.2850
     11 C           7.0815    1.4566    0.0000 C.3     1  UNL1        0.0249
     12 C           7.7598    1.9975    0.0000 C.3     1  UNL1        0.0033
     13 C           6.0795    1.3505    0.0000 C.3     1  UNL1        0.0248
     14 C           7.0815    0.5890    0.0000 C.3     1  UNL1        0.0104
     15 C           8.6056    0.2411    0.0000 C.3     1  UNL1        0.0074
     16 C           8.6056    1.8044    0.0000 C.3     1  UNL1        0.1246
     17 C           8.9820    1.0228    0.0000 C.3     1  UNL1        0.1039
     18 C           7.7598    0.0481    0.0000 C.3     1  UNL1       -0.0389
     19 C           6.3301    0.1552    0.0000 C.3     1  UNL1        0.1299
     20 C           6.3301    1.8904    0.0000 C.3     1  UNL1        0.0662
     21 C           7.6820    2.8616    0.0000 C.3     1  UNL1       -0.0391
     22 C           8.4797    3.2026    0.0000 C.3     1  UNL1        0.0148
     23 C           9.0506    2.5492    0.0000 C.3     1  UNL1        0.0951
     24 C           9.6269    1.2927    0.0000 C.3     1  UNL1        0.0058
     25 C           5.1348    0.3094    0.0000 C.3     1  UNL1        0.0395
     26 C           9.6269    2.7772    0.0000 C.3     1  UNL1        0.0663
     27 C           5.5788    0.5890    0.0000 C.3     1  UNL1       -0.0089
     28 C           5.5788    1.4566    0.0000 C.3     1  UNL1       -0.0224
     29 C           4.3308    1.6560    0.0000 C.3     1  UNL1       -0.0035
     30 C           3.4138    1.2571    0.0000 C.3     1  UNL1       -0.0523
     31 C           5.4641    3.3904    0.0000 C.3     1  UNL1        0.0368
     32 C          10.9539    2.2185    0.0000 C.3     1  UNL1        0.0369
     33 C           5.4641   -1.3448    0.0000 C.2     1  UNL1        0.3416
     34 C          10.3636    4.3448    0.0000 C.3     1  UNL1        0.0368
     35 C           5.4641   -2.3448    0.0000 C.ar    1  UNL1        0.0801
     36 C           4.5981   -2.8448    0.0000 C.ar    1  UNL1        0.0474
     37 C           6.3301   -2.8448    0.0000 C.ar    1  UNL1       -0.0460
     38 C           4.5981   -3.8448    0.0000 C.ar    1  UNL1       -0.0397
     39 C           6.3301   -3.8448    0.0000 C.ar    1  UNL1       -0.0609
     40 C           5.4641   -4.3448    0.0000 C.ar    1  UNL1       -0.0600
     41 C           2.8660   -2.8448    0.0000 C.2     1  UNL1        0.2141
     42 C           2.0000   -2.3448    0.0000 C.3     1  UNL1        0.0125
     43 H           6.9782    2.3316    0.0000 H       1  UNL1        0.0337
     44 H           5.9556    1.9580    0.0000 H       1  UNL1        0.0473
     45 H           7.0179   -0.2586    0.0000 H       1  UNL1        0.0347
     46 H           8.9922   -0.2436    0.0000 H       1  UNL1        0.0345
     47 H           7.2750   -0.3385    0.0000 H       1  UNL1        0.0273
     48 H           8.0288   -0.5105    0.0000 H       1  UNL1        0.0273
     49 H           6.8671    2.2004    0.0000 H       1  UNL1        0.0602
     50 H           7.4992    3.4540    0.0000 H       1  UNL1        0.0273
     51 H           7.0737    2.7418    0.0000 H       1  UNL1        0.0273
     52 H           8.4590    4.0523    0.0000 H       1  UNL1        0.0352
     53 H           9.2814    3.1246    0.0000 H       1  UNL1        0.0629
     54 H           9.7889    0.6942    0.0000 H       1  UNL1        0.0319
     55 H          10.2415    1.3744    0.0000 H       1  UNL1        0.0319
     56 H           4.5154    0.3360    0.0000 H       1  UNL1        0.0466
     57 H           5.0818   -0.3083    0.0000 H       1  UNL1        0.0466
     58 H           9.5488    3.3923    0.0000 H       1  UNL1        0.0600
     59 H           4.9682    0.6967    0.0000 H       1  UNL1        0.0305
     60 H           5.3667    0.0064    0.0000 H       1  UNL1        0.0305
     61 H           5.3667    2.0392    0.0000 H       1  UNL1        0.0292
     62 H           4.9682    1.3489    0.0000 H       1  UNL1        0.0292
     63 H          10.1697    1.6958    0.0000 H       1  UNL1        0.2104
     64 H           9.4942   -0.2971    0.0000 H       1  UNL1        0.2103
     65 H           4.7805    2.0829    0.0000 H       1  UNL1        0.0424
     66 H           3.9885    2.1730    0.0000 H       1  UNL1        0.0424
     67 H           3.1665    1.8256    0.0000 H       1  UNL1        0.0242
     68 H           2.8453    1.0098    0.0000 H       1  UNL1        0.0242
     69 H           3.6612    0.6886    0.0000 H       1  UNL1        0.0242
     70 H           5.7741    3.9273    0.0000 H       1  UNL1        0.0524
     71 H           4.9272    3.7004    0.0000 H       1  UNL1        0.0524
     72 H           5.1541    2.8534    0.0000 H       1  UNL1        0.0524
     73 H          10.6933    1.6559    0.0000 H       1  UNL1        0.0524
     74 H          11.5165    1.9579    0.0000 H       1  UNL1        0.0524
     75 H          11.2145    2.7811    0.0000 H       1  UNL1        0.0524
     76 H          10.9814    4.3970    0.0000 H       1  UNL1        0.0524
     77 H          10.3114    4.9626    0.0000 H       1  UNL1        0.0524
     78 H           9.7458    4.2926    0.0000 H       1  UNL1        0.0524
     79 H           6.8671   -2.5348    0.0000 H       1  UNL1        0.0626
     80 H           4.0611   -4.1548    0.0000 H       1  UNL1        0.0636
     81 H           6.8671   -4.1548    0.0000 H       1  UNL1        0.0618
     82 H           3.7320   -1.7248    0.0000 H       1  UNL1        0.1548
     83 H           5.4641   -4.9648    0.0000 H       1  UNL1        0.0618
     84 H           2.3100   -1.8079    0.0000 H       1  UNL1        0.0323
     85 H           1.4631   -2.0348    0.0000 H       1  UNL1        0.0323
     86 H           1.6900   -2.8817    0.0000 H       1  UNL1        0.0323
@<TRIPOS>BOND
     1    16     1    1
     2     1    63    1
     3    17     2    1
     4     2    64    1
     5    19     3    1
     6     3    33    1
     7     4    20    1
     8     4    31    1
     9    23     5    1
    10     5    32    1
    11    26     6    1
    12     6    34    1
    13     7    33    2
    14     8    41    2
    15     9    13    1
    16     9    25    1
    17     9    29    1
    18    10    36    1
    19    10    41   am
    20    10    82    1
    21    11    12    1
    22    11    13    1
    23    11    14    1
    24    11    20    1
    25    12    16    1
    26    12    21    1
    27    12    43    1
    28    13    15    1
    29    13    44    1
    30    14    18    1
    31    14    19    1
    32    14    45    1
    33    15    17    1
    34    15    18    1
    35    15    46    1
    36    16    17    1
    37    16    23    1
    38    17    24    1
    39    18    47    1
    40    18    48    1
    41    19    25    1
    42    19    27    1
    43    20    28    1
    44    20    49    1
    45    21    22    1
    46    21    50    1
    47    21    51    1
    48    22    23    1
    49    22    26    1
    50    22    52    1
    51    23    53    1
    52    24    26    1
    53    24    54    1
    54    24    55    1
    55    25    56    1
    56    25    57    1
    57    26    58    1
    58    27    28    1
    59    27    59    1
    60    27    60    1
    61    28    61    1
    62    28    62    1
    63    29    30    1
    64    29    65    1
    65    29    66    1
    66    30    67    1
    67    30    68    1
    68    30    69    1
    69    31    70    1
    70    31    71    1
    71    31    72    1
    72    32    73    1
    73    32    74    1
    74    32    75    1
    75    33    35    1
    76    34    76    1
    77    34    77    1
    78    34    78    1
    79    35    36   ar
    80    35    37   ar
    81    36    38   ar
    82    37    39   ar
    83    37    79    1
    84    38    40   ar
    85    38    80    1
    86    39    40   ar
    87    39    81    1
    88    40    83    1
    89    41    42    1
    90    42    84    1
    91    42    85    1
    92    42    86    1
