@<TRIPOS>MOLECULE
IMPHY014111
 48 48 0 0 0
SMALL
GASTEIGER

@<TRIPOS>ATOM
      1 O           8.9282   -0.2500    0.0000 O.3     1  UNL1       -0.4611
      2 O           5.4641   -2.2500    0.0000 O.3     1  UNL1       -0.4611
      3 O           7.1962   -0.2500    0.0000 O.2     1  UNL1       -0.2449
      4 O           6.3301   -0.7500    0.0000 O.2     1  UNL1       -0.2449
      5 C          10.6603    2.7500    0.0000 C.3     1  UNL1       -0.0466
      6 C           9.7942    2.2500    0.0000 C.3     1  UNL1       -0.0476
      7 C           9.7942    1.2500    0.0000 C.3     1  UNL1       -0.0183
      8 C          10.6603    3.7500    0.0000 C.3     1  UNL1       -0.0627
      9 C          11.5263    2.2500    0.0000 C.3     1  UNL1       -0.0627
     10 C           8.9282    0.7500    0.0000 C.3     1  UNL1        0.0928
     11 C           3.7320   -2.2500    0.0000 C.3     1  UNL1       -0.0188
     12 C           2.8660   -1.7500    0.0000 C.3     1  UNL1       -0.0528
     13 C           8.0622   -1.7500    0.0000 C.ar    1  UNL1        0.0729
     14 C           4.5981   -1.7500    0.0000 C.3     1  UNL1        0.0928
     15 C           8.0622   -0.7500    0.0000 C.2     1  UNL1        0.3400
     16 C           7.1962   -2.2500    0.0000 C.ar    1  UNL1        0.0729
     17 C           2.0000   -2.2500    0.0000 C.3     1  UNL1       -0.0652
     18 C           6.3301   -1.7500    0.0000 C.2     1  UNL1        0.3400
     19 C           8.9282   -2.2500    0.0000 C.ar    1  UNL1       -0.0470
     20 C           7.1962   -3.2500    0.0000 C.ar    1  UNL1       -0.0470
     21 C           8.9282   -3.2500    0.0000 C.ar    1  UNL1       -0.0609
     22 C           8.0622   -3.7500    0.0000 C.ar    1  UNL1       -0.0609
     23 H          11.1972    3.0600    0.0000 H       1  UNL1        0.0295
     24 H           9.5822    2.8326    0.0000 H       1  UNL1        0.0269
     25 H           9.1836    2.1423    0.0000 H       1  UNL1        0.0269
     26 H          10.0063    0.6674    0.0000 H       1  UNL1        0.0298
     27 H          10.4048    1.3577    0.0000 H       1  UNL1        0.0298
     28 H          11.2803    3.7500    0.0000 H       1  UNL1        0.0232
     29 H          10.6603    4.3700    0.0000 H       1  UNL1        0.0232
     30 H          10.0403    3.7500    0.0000 H       1  UNL1        0.0232
     31 H          11.2163    1.7131    0.0000 H       1  UNL1        0.0232
     32 H          12.0632    1.9400    0.0000 H       1  UNL1        0.0232
     33 H          11.8363    2.7869    0.0000 H       1  UNL1        0.0232
     34 H           8.7162    1.3326    0.0000 H       1  UNL1        0.0697
     35 H           8.3176    0.6423    0.0000 H       1  UNL1        0.0697
     36 H           3.3335   -2.7250    0.0000 H       1  UNL1        0.0298
     37 H           4.1306   -2.7250    0.0000 H       1  UNL1        0.0298
     38 H           3.2646   -1.2750    0.0000 H       1  UNL1        0.0264
     39 H           2.4675   -1.2750    0.0000 H       1  UNL1        0.0264
     40 H           4.9966   -1.2750    0.0000 H       1  UNL1        0.0697
     41 H           4.1996   -1.2750    0.0000 H       1  UNL1        0.0697
     42 H           1.6900   -1.7131    0.0000 H       1  UNL1        0.0230
     43 H           1.4631   -2.5600    0.0000 H       1  UNL1        0.0230
     44 H           2.3100   -2.7869    0.0000 H       1  UNL1        0.0230
     45 H           9.4651   -1.9400    0.0000 H       1  UNL1        0.0626
     46 H           6.6592   -3.5600    0.0000 H       1  UNL1        0.0626
     47 H           9.4651   -3.5600    0.0000 H       1  UNL1        0.0618
     48 H           8.0622   -4.3700    0.0000 H       1  UNL1        0.0618
@<TRIPOS>BOND
     1     1    10    1
     2     1    15    1
     3     2    14    1
     4     2    18    1
     5     3    15    2
     6     4    18    2
     7     5     6    1
     8     5     8    1
     9     5     9    1
    10     5    23    1
    11     6     7    1
    12     6    24    1
    13     6    25    1
    14     7    10    1
    15     7    26    1
    16     7    27    1
    17     8    28    1
    18     8    29    1
    19     8    30    1
    20     9    31    1
    21     9    32    1
    22     9    33    1
    23    10    34    1
    24    10    35    1
    25    11    12    1
    26    11    14    1
    27    11    36    1
    28    11    37    1
    29    12    17    1
    30    12    38    1
    31    12    39    1
    32    13    15    1
    33    13    16   ar
    34    13    19   ar
    35    14    40    1
    36    14    41    1
    37    16    18    1
    38    16    20   ar
    39    17    42    1
    40    17    43    1
    41    17    44    1
    42    19    21   ar
    43    19    45    1
    44    20    22   ar
    45    20    46    1
    46    21    22   ar
    47    21    47    1
    48    22    48    1
