@<TRIPOS>MOLECULE
IMPHY010612
 39 40 0 0 0
SMALL
GASTEIGER

@<TRIPOS>ATOM
      1 O           4.3723   -2.8114    0.0000 O.3     1  UNL1       -0.4533
      2 O           5.4476    2.6604    0.0000 O.3     1  UNL1       -0.2297
      3 O           2.8836   -3.7804    0.0000 O.2     1  UNL1       -0.2453
      4 O           6.3136    3.1604    0.0000 O.3     1  UNL1       -0.2496
      5 C           3.7155   -1.3396    0.0000 C.3     1  UNL1        0.0314
      6 C           4.5816   -1.8396    0.0000 C.3     1  UNL1        0.1288
      7 C           3.7155   -0.3396    0.0000 C.3     1  UNL1       -0.0385
      8 C           4.5816    0.1604    0.0000 C.3     1  UNL1       -0.0288
      9 C           2.9785   -2.0066    0.0000 C.2     1  UNL1        0.0364
     10 C           5.4476    1.6604    0.0000 C.3     1  UNL1        0.1146
     11 C           5.4476   -1.3396    0.0000 C.2     1  UNL1       -0.0444
     12 C           4.5816    1.1604    0.0000 C.2     1  UNL1       -0.0452
     13 C           6.3136    1.1604    0.0000 C.3     1  UNL1       -0.0160
     14 C           6.3136    0.1604    0.0000 C.3     1  UNL1       -0.0291
     15 C           5.4476   -0.3396    0.0000 C.2     1  UNL1       -0.0730
     16 C           3.3836   -2.9144    0.0000 C.2     1  UNL1        0.3356
     17 C           5.2424    0.2243    0.0000 C.3     1  UNL1       -0.0437
     18 C           2.0000   -1.8004    0.0000 C.2     1  UNL1       -0.0883
     19 C           3.7155    1.6604    0.0000 C.2     1  UNL1       -0.0969
     20 H           2.9386   -0.9948    0.0000 H       1  UNL1        0.0390
     21 H           5.2686   -2.3401    0.0000 H       1  UNL1        0.0785
     22 H           3.5035    0.2431    0.0000 H       1  UNL1        0.0275
     23 H           3.1049   -0.4472    0.0000 H       1  UNL1        0.0275
     24 H           4.7936   -0.4222    0.0000 H       1  UNL1        0.0311
     25 H           5.1921    0.2681    0.0000 H       1  UNL1        0.0311
     26 H           5.9845    1.9704    0.0000 H       1  UNL1        0.0675
     27 H           5.9845   -1.6496    0.0000 H       1  UNL1        0.0608
     28 H           6.9242    1.0528    0.0000 H       1  UNL1        0.0297
     29 H           6.5256    1.7431    0.0000 H       1  UNL1        0.0297
     30 H           6.5256   -0.4222    0.0000 H       1  UNL1        0.0311
     31 H           6.9242    0.2681    0.0000 H       1  UNL1        0.0311
     32 H           5.8250    0.4363    0.0000 H       1  UNL1        0.0274
     33 H           5.0303    0.8069    0.0000 H       1  UNL1        0.0274
     34 H           4.6598    0.0122    0.0000 H       1  UNL1        0.0274
     35 H           1.8074   -1.2111    0.0000 H       1  UNL1        0.0540
     36 H           1.5859   -2.2619    0.0000 H       1  UNL1        0.0540
     37 H           3.7155    2.2804    0.0000 H       1  UNL1        0.0535
     38 H           3.1786    1.3504    0.0000 H       1  UNL1        0.0535
     39 H           6.3136    3.7804    0.0000 H       1  UNL1        0.2531
@<TRIPOS>BOND
     1     1     6    1
     2     1    16    1
     3     2     4    1
     4    10     2    1
     5     3    16    2
     6     4    39    1
     7     5     6    1
     8     5     7    1
     9     5     9    1
    10     5    20    1
    11     6    11    1
    12     6    21    1
    13     7     8    1
    14     7    22    1
    15     7    23    1
    16     8    12    1
    17     8    24    1
    18     8    25    1
    19     9    16    1
    20     9    18    2
    21    10    12    1
    22    10    13    1
    23    10    26    1
    24    11    15    2
    25    11    27    1
    26    12    19    2
    27    13    14    1
    28    13    28    1
    29    13    29    1
    30    14    15    1
    31    14    30    1
    32    14    31    1
    33    15    17    1
    34    17    32    1
    35    17    33    1
    36    17    34    1
    37    18    35    1
    38    18    36    1
    39    19    37    1
    40    19    38    1
