@<TRIPOS>MOLECULE
IMPHY000772
 66 70 0 0 0
SMALL
GASTEIGER

@<TRIPOS>ATOM
      1 O          10.9848    2.3305    0.0000 O.2     1  UNL1       -0.5030
      2 O           9.1654    3.3623    0.0000 O.2     1  UNL1       -0.2840
      3 C           5.6449   -0.8139    0.0000 C.3     1  UNL1       -0.0193
      4 C           6.5109   -1.3139    0.0000 C.3     1  UNL1       -0.0043
      5 C           4.7349   -1.3208    0.0000 C.3     1  UNL1       -0.0255
      6 C           4.7269   -2.3624    0.0000 C.3     1  UNL1       -0.0250
      7 C           6.5270   -2.3554    0.0000 C.3     1  UNL1       -0.0429
      8 C           5.6449    0.1861    0.0000 C.3     1  UNL1       -0.0455
      9 C           5.6290   -2.8832    0.0000 C.3     1  UNL1       -0.0463
     10 C           7.3770   -0.8139    0.0000 C.2     1  UNL1       -0.0529
     11 C           7.3770    0.1861    0.0000 C.3     1  UNL1        0.0154
     12 C           6.5109    0.6861    0.0000 C.3     1  UNL1       -0.0393
     13 C           3.8081   -0.7567    0.0000 C.3     1  UNL1       -0.0281
     14 C           4.7789   -0.3139    0.0000 C.3     1  UNL1       -0.0585
     15 C           3.7914   -2.9121    0.0000 C.3     1  UNL1       -0.0288
     16 C           7.3770   -1.8139    0.0000 C.3     1  UNL1       -0.0553
     17 C           4.7192   -3.3623    0.0000 C.3     1  UNL1       -0.0590
     18 C           2.8602   -1.2846    0.0000 C.2     1  UNL1       -0.0762
     19 C           8.2709    0.7208    0.0000 C.2     1  UNL1       -0.0262
     20 C           2.8518   -2.3696    0.0000 C.2     1  UNL1       -0.0845
     21 C           8.2709   -1.3486    0.0000 C.2     1  UNL1       -0.0606
     22 C           7.3770    1.1861    0.0000 C.3     1  UNL1       -0.0517
     23 C           9.1770    0.2069    0.0000 C.2     1  UNL1       -0.0144
     24 C           9.1770   -0.8347    0.0000 C.2     1  UNL1       -0.0539
     25 C           2.0000   -0.7746    0.0000 C.3     1  UNL1       -0.0438
     26 C           8.2458    1.8055    0.0000 C.2     1  UNL1       -0.0067
     27 C          10.1208    0.7422    0.0000 C.2     1  UNL1        0.0022
     28 C           9.1770    2.3624    0.0000 C.2     1  UNL1        0.2206
     29 C          10.1208    1.8272    0.0000 C.2     1  UNL1        0.1671
     30 C          10.9848    0.2388    0.0000 C.3     1  UNL1       -0.0356
     31 H           5.4661   -1.7542    0.0000 H       1  UNL1        0.0315
     32 H           6.7450   -2.9358    0.0000 H       1  UNL1        0.0274
     33 H           7.1361   -2.2399    0.0000 H       1  UNL1        0.0274
     34 H           5.4329    0.7687    0.0000 H       1  UNL1        0.0271
     35 H           5.0343    0.0784    0.0000 H       1  UNL1        0.0271
     36 H           5.2316   -3.3591    0.0000 H       1  UNL1        0.0271
     37 H           6.0299   -3.3561    0.0000 H       1  UNL1        0.0271
     38 H           6.9095    1.1610    0.0000 H       1  UNL1        0.0277
     39 H           6.1124    1.1610    0.0000 H       1  UNL1        0.0277
     40 H           4.2163   -0.2900    0.0000 H       1  UNL1        0.0313
     41 H           3.4182   -0.2746    0.0000 H       1  UNL1        0.0313
     42 H           5.0889    0.2230    0.0000 H       1  UNL1        0.0235
     43 H           4.2420   -0.0039    0.0000 H       1  UNL1        0.0235
     44 H           4.4689   -0.8508    0.0000 H       1  UNL1        0.0235
     45 H           3.3942   -3.3880    0.0000 H       1  UNL1        0.0313
     46 H           4.1924   -3.3850    0.0000 H       1  UNL1        0.0313
     47 H           7.0670   -2.3508    0.0000 H       1  UNL1        0.0238
     48 H           7.9139   -2.1239    0.0000 H       1  UNL1        0.0238
     49 H           7.6870   -1.2770    0.0000 H       1  UNL1        0.0238
     50 H           4.0992   -3.3575    0.0000 H       1  UNL1        0.0235
     51 H           4.7144   -3.9823    0.0000 H       1  UNL1        0.0235
     52 H           5.3392   -3.3671    0.0000 H       1  UNL1        0.0235
     53 H           2.3137   -2.6775    0.0000 H       1  UNL1        0.0572
     54 H           8.2637   -1.9685    0.0000 H       1  UNL1        0.0618
     55 H           7.9970    1.1861    0.0000 H       1  UNL1        0.0241
     56 H           7.3770    1.8061    0.0000 H       1  UNL1        0.0241
     57 H           6.7570    1.1861    0.0000 H       1  UNL1        0.0241
     58 H           9.7127   -1.1468    0.0000 H       1  UNL1        0.0624
     59 H           2.3162   -0.2413    0.0000 H       1  UNL1        0.0274
     60 H           1.4667   -0.4584    0.0000 H       1  UNL1        0.0274
     61 H           1.6838   -1.3080    0.0000 H       1  UNL1        0.0274
     62 H           7.7030    2.1051    0.0000 H       1  UNL1        0.0660
     63 H          10.6728   -0.2969    0.0000 H       1  UNL1        0.0279
     64 H          11.5206   -0.0733    0.0000 H       1  UNL1        0.0279
     65 H          11.2969    0.7746    0.0000 H       1  UNL1        0.0279
     66 H          10.9825    2.9505    0.0000 H       1  UNL1        0.2923
@<TRIPOS>BOND
     1     1    29    1
     2     1    66    1
     3     2    28    2
     4     3     4    1
     5     3     5    1
     6     3     8    1
     7     3    14    1
     8     4     7    1
     9     4    10    1
    10     4    16    1
    11     5     6    1
    12     5    13    1
    13     5    31    1
    14     6     9    1
    15     6    15    1
    16     6    17    1
    17     7     9    1
    18     7    32    1
    19     7    33    1
    20     8    12    1
    21     8    34    1
    22     8    35    1
    23     9    36    1
    24     9    37    1
    25    10    11    1
    26    10    21    2
    27    11    12    1
    28    11    19    1
    29    11    22    1
    30    12    38    1
    31    12    39    1
    32    13    18    1
    33    13    40    1
    34    13    41    1
    35    14    42    1
    36    14    43    1
    37    14    44    1
    38    15    20    1
    39    15    45    1
    40    15    46    1
    41    16    47    1
    42    16    48    1
    43    16    49    1
    44    17    50    1
    45    17    51    1
    46    17    52    1
    47    18    20    2
    48    18    25    1
    49    19    23    1
    50    19    26    2
    51    20    53    1
    52    21    24    1
    53    21    54    1
    54    22    55    1
    55    22    56    1
    56    22    57    1
    57    23    24    2
    58    23    27    1
    59    24    58    1
    60    25    59    1
    61    25    60    1
    62    25    61    1
    63    26    28    1
    64    26    62    1
    65    27    29    2
    66    27    30    1
    67    28    29    1
    68    30    63    1
    69    30    64    1
    70    30    65    1
