@<TRIPOS>MOLECULE
IMPHY014662
 80 80 0 0 0
SMALL
GASTEIGER

@<TRIPOS>ATOM
      1 O           6.3301    2.0000    0.0000 O.2     1  UNL1       -0.2974
      2 C           2.8660   -7.0000    0.0000 C.3     1  UNL1       -0.0410
      3 C           2.0000   -7.5000    0.0000 C.3     1  UNL1       -0.0502
      4 C           3.7320   -7.5000    0.0000 C.3     1  UNL1       -0.0502
      5 C           2.8660   -6.0000    0.0000 C.3     1  UNL1       -0.0502
      6 C           2.0000   -8.5000    0.0000 C.3     1  UNL1       -0.0528
      7 C           3.7320   -8.5000    0.0000 C.3     1  UNL1       -0.0528
      8 C           2.8660   -9.0000    0.0000 C.3     1  UNL1       -0.0530
      9 C           3.7320   -5.5000    0.0000 C.3     1  UNL1       -0.0528
     10 C           3.7320   -4.5000    0.0000 C.3     1  UNL1       -0.0530
     11 C           4.5981   -4.0000    0.0000 C.3     1  UNL1       -0.0531
     12 C           4.5981   -3.0000    0.0000 C.3     1  UNL1       -0.0531
     13 C           5.4641   -2.5000    0.0000 C.3     1  UNL1       -0.0531
     14 C           5.4641   -1.5000    0.0000 C.3     1  UNL1       -0.0530
     15 C           6.3301   -1.0000    0.0000 C.3     1  UNL1       -0.0527
     16 C           6.3301    0.0000    0.0000 C.3     1  UNL1       -0.0464
     17 C           7.1962    0.5000    0.0000 C.3     1  UNL1        0.0058
     18 C           8.9282    4.5000    0.0000 C.3     1  UNL1       -0.0530
     19 C           8.9282    3.5000    0.0000 C.3     1  UNL1       -0.0527
     20 C           9.7942    5.0000    0.0000 C.3     1  UNL1       -0.0531
     21 C           8.0622    3.0000    0.0000 C.3     1  UNL1       -0.0464
     22 C           8.0622    2.0000    0.0000 C.3     1  UNL1        0.0058
     23 C           9.7942    6.0000    0.0000 C.3     1  UNL1       -0.0531
     24 C           7.1962    1.5000    0.0000 C.2     1  UNL1        0.1334
     25 C          10.6603    6.5000    0.0000 C.3     1  UNL1       -0.0531
     26 C          10.6603    7.5000    0.0000 C.3     1  UNL1       -0.0533
     27 C          11.5263    8.0000    0.0000 C.3     1  UNL1       -0.0559
     28 C          11.5263    9.0000    0.0000 C.3     1  UNL1       -0.0653
     29 H           3.4030   -6.6900    0.0000 H       1  UNL1        0.0301
     30 H           1.7880   -6.9174    0.0000 H       1  UNL1        0.0268
     31 H           1.3894   -7.6077    0.0000 H       1  UNL1        0.0268
     32 H           4.3426   -7.6077    0.0000 H       1  UNL1        0.0268
     33 H           3.9441   -6.9174    0.0000 H       1  UNL1        0.0268
     34 H           2.6540   -5.4174    0.0000 H       1  UNL1        0.0268
     35 H           2.2554   -6.1077    0.0000 H       1  UNL1        0.0268
     36 H           1.3894   -8.3923    0.0000 H       1  UNL1        0.0265
     37 H           1.7880   -9.0826    0.0000 H       1  UNL1        0.0265
     38 H           3.9441   -9.0826    0.0000 H       1  UNL1        0.0265
     39 H           4.3426   -8.3923    0.0000 H       1  UNL1        0.0265
     40 H           2.4675   -9.4750    0.0000 H       1  UNL1        0.0265
     41 H           3.2646   -9.4750    0.0000 H       1  UNL1        0.0265
     42 H           3.9441   -6.0826    0.0000 H       1  UNL1        0.0265
     43 H           4.3426   -5.3923    0.0000 H       1  UNL1        0.0265
     44 H           3.5200   -3.9174    0.0000 H       1  UNL1        0.0265
     45 H           3.1215   -4.6077    0.0000 H       1  UNL1        0.0265
     46 H           4.8101   -4.5826    0.0000 H       1  UNL1        0.0265
     47 H           5.2087   -3.8923    0.0000 H       1  UNL1        0.0265
     48 H           4.3860   -2.4174    0.0000 H       1  UNL1        0.0265
     49 H           3.9875   -3.1077    0.0000 H       1  UNL1        0.0265
     50 H           5.6762   -3.0826    0.0000 H       1  UNL1        0.0265
     51 H           6.0747   -2.3923    0.0000 H       1  UNL1        0.0265
     52 H           5.2520   -0.9174    0.0000 H       1  UNL1        0.0265
     53 H           4.8535   -1.6077    0.0000 H       1  UNL1        0.0265
     54 H           6.5422   -1.5826    0.0000 H       1  UNL1        0.0265
     55 H           6.9407   -0.8923    0.0000 H       1  UNL1        0.0265
     56 H           6.1181    0.5826    0.0000 H       1  UNL1        0.0269
     57 H           5.7196   -0.1077    0.0000 H       1  UNL1        0.0269
     58 H           7.4082   -0.0826    0.0000 H       1  UNL1        0.0342
     59 H           7.8067    0.6077    0.0000 H       1  UNL1        0.0342
     60 H           8.7162    5.0826    0.0000 H       1  UNL1        0.0265
     61 H           8.3176    4.3923    0.0000 H       1  UNL1        0.0265
     62 H           9.1403    2.9174    0.0000 H       1  UNL1        0.0265
     63 H           9.5388    3.6077    0.0000 H       1  UNL1        0.0265
     64 H          10.0063    4.4174    0.0000 H       1  UNL1        0.0265
     65 H          10.4048    5.1077    0.0000 H       1  UNL1        0.0265
     66 H           7.8501    3.5826    0.0000 H       1  UNL1        0.0269
     67 H           7.4516    2.8923    0.0000 H       1  UNL1        0.0269
     68 H           8.2742    1.4174    0.0000 H       1  UNL1        0.0342
     69 H           8.6728    2.1077    0.0000 H       1  UNL1        0.0342
     70 H           9.5822    6.5826    0.0000 H       1  UNL1        0.0265
     71 H           9.1836    5.8923    0.0000 H       1  UNL1        0.0265
     72 H          10.8723    5.9174    0.0000 H       1  UNL1        0.0265
     73 H          11.2708    6.6077    0.0000 H       1  UNL1        0.0265
     74 H          10.4482    8.0826    0.0000 H       1  UNL1        0.0265
     75 H          10.0497    7.3923    0.0000 H       1  UNL1        0.0265
     76 H          11.7383    7.4174    0.0000 H       1  UNL1        0.0263
     77 H          12.1369    8.1077    0.0000 H       1  UNL1        0.0263
     78 H          12.1463    9.0000    0.0000 H       1  UNL1        0.0230
     79 H          11.5263    9.6200    0.0000 H       1  UNL1        0.0230
     80 H          10.9063    9.0000    0.0000 H       1  UNL1        0.0230
@<TRIPOS>BOND
     1     1    24    2
     2     2     3    1
     3     2     4    1
     4     2     5    1
     5     2    29    1
     6     3     6    1
     7     3    30    1
     8     3    31    1
     9     4     7    1
    10     4    32    1
    11     4    33    1
    12     5     9    1
    13     5    34    1
    14     5    35    1
    15     6     8    1
    16     6    36    1
    17     6    37    1
    18     7     8    1
    19     7    38    1
    20     7    39    1
    21     8    40    1
    22     8    41    1
    23     9    10    1
    24     9    42    1
    25     9    43    1
    26    10    11    1
    27    10    44    1
    28    10    45    1
    29    11    12    1
    30    11    46    1
    31    11    47    1
    32    12    13    1
    33    12    48    1
    34    12    49    1
    35    13    14    1
    36    13    50    1
    37    13    51    1
    38    14    15    1
    39    14    52    1
    40    14    53    1
    41    15    16    1
    42    15    54    1
    43    15    55    1
    44    16    17    1
    45    16    56    1
    46    16    57    1
    47    17    24    1
    48    17    58    1
    49    17    59    1
    50    18    19    1
    51    18    20    1
    52    18    60    1
    53    18    61    1
    54    19    21    1
    55    19    62    1
    56    19    63    1
    57    20    23    1
    58    20    64    1
    59    20    65    1
    60    21    22    1
    61    21    66    1
    62    21    67    1
    63    22    24    1
    64    22    68    1
    65    22    69    1
    66    23    25    1
    67    23    70    1
    68    23    71    1
    69    25    26    1
    70    25    72    1
    71    25    73    1
    72    26    27    1
    73    26    74    1
    74    26    75    1
    75    27    28    1
    76    27    76    1
    77    27    77    1
    78    28    78    1
    79    28    79    1
    80    28    80    1
