@<TRIPOS>MOLECULE
IMPHY003032
 62 62 0 0 0
SMALL
GASTEIGER

@<TRIPOS>ATOM
      1 O          10.6632    1.1739    0.0000 O.3     1  UNL1       -0.4574
      2 O           7.8434   -4.1739    0.0000 O.2     1  UNL1       -0.2924
      3 O           9.7972    2.6739    0.0000 O.2     1  UNL1       -0.2511
      4 O           2.9511    1.0875    0.0000 O.3     1  UNL1       -0.4679
      5 O           2.4158   -0.5598    0.0000 O.2     1  UNL1       -0.2509
      6 C           8.1222   -2.4139    0.0000 C.3     1  UNL1        0.0346
      7 C           8.9312   -1.8261    0.0000 C.3     1  UNL1        0.0058
      8 C           7.1711   -2.1048    0.0000 C.3     1  UNL1       -0.0241
      9 C           8.4312   -3.3649    0.0000 C.2     1  UNL1        0.1600
     10 C           9.7402   -2.4139    0.0000 C.2     1  UNL1       -0.0732
     11 C           8.9312   -0.8261    0.0000 C.2     1  UNL1       -0.0770
     12 C           9.4312   -3.3649    0.0000 C.2     1  UNL1       -0.0222
     13 C           9.7972    0.6739    0.0000 C.3     1  UNL1        0.1213
     14 C           8.9312    1.1739    0.0000 C.3     1  UNL1       -0.0120
     15 C           9.7972   -0.3261    0.0000 C.2     1  UNL1       -0.0473
     16 C           8.9312    2.1739    0.0000 C.3     1  UNL1       -0.0494
     17 C           6.4280   -2.7740    0.0000 C.2     1  UNL1       -0.0872
     18 C           8.0651    2.6739    0.0000 C.3     1  UNL1       -0.0532
     19 C           8.0651    3.6739    0.0000 C.3     1  UNL1       -0.0559
     20 C           5.4769   -2.4650    0.0000 C.2     1  UNL1       -0.0879
     21 C           5.2690   -1.4868    0.0000 C.3     1  UNL1       -0.0343
     22 C           4.3179   -1.1778    0.0000 C.3     1  UNL1       -0.0395
     23 C           7.1991    4.1739    0.0000 C.3     1  UNL1       -0.0653
     24 C           4.1100   -0.1996    0.0000 C.3     1  UNL1        0.0452
     25 C          10.6632    2.1739    0.0000 C.2     1  UNL1        0.3045
     26 C          11.5293    2.6739    0.0000 C.3     1  UNL1        0.0333
     27 C           3.1590    0.1094    0.0000 C.2     1  UNL1        0.3068
     28 C           2.0000    1.3965    0.0000 C.3     1  UNL1        0.0817
     29 H           8.0252   -1.8015    0.0000 H       1  UNL1        0.0392
     30 H           8.3788   -1.5446    0.0000 H       1  UNL1        0.0392
     31 H           7.4622   -1.5574    0.0000 H       1  UNL1        0.0314
     32 H           6.6825   -1.7231    0.0000 H       1  UNL1        0.0314
     33 H          10.3299   -2.2223    0.0000 H       1  UNL1        0.0579
     34 H           8.3942   -0.5161    0.0000 H       1  UNL1        0.0576
     35 H           9.7956   -3.8665    0.0000 H       1  UNL1        0.0649
     36 H          10.3341    0.3639    0.0000 H       1  UNL1        0.0779
     37 H           8.3206    1.2816    0.0000 H       1  UNL1        0.0304
     38 H           8.7191    0.5913    0.0000 H       1  UNL1        0.0304
     39 H          10.3341   -0.6361    0.0000 H       1  UNL1        0.0605
     40 H           9.5418    2.0663    0.0000 H       1  UNL1        0.0267
     41 H           9.1432    2.7565    0.0000 H       1  UNL1        0.0267
     42 H           6.5569   -3.3804    0.0000 H       1  UNL1        0.0569
     43 H           7.4546    2.7816    0.0000 H       1  UNL1        0.0265
     44 H           7.8531    2.0913    0.0000 H       1  UNL1        0.0265
     45 H           8.6757    3.5663    0.0000 H       1  UNL1        0.0263
     46 H           8.2772    4.2565    0.0000 H       1  UNL1        0.0263
     47 H           5.0162   -2.8798    0.0000 H       1  UNL1        0.0569
     48 H           5.8886   -1.4652    0.0000 H       1  UNL1        0.0307
     49 H           5.3553   -0.8728    0.0000 H       1  UNL1        0.0307
     50 H           3.6983   -1.1994    0.0000 H       1  UNL1        0.0273
     51 H           4.2316   -1.7918    0.0000 H       1  UNL1        0.0273
     52 H           7.5091    4.7109    0.0000 H       1  UNL1        0.0230
     53 H           6.6622    4.4839    0.0000 H       1  UNL1        0.0230
     54 H           6.8891    3.6370    0.0000 H       1  UNL1        0.0230
     55 H           4.7296   -0.1780    0.0000 H       1  UNL1        0.0378
     56 H           4.1963    0.4143    0.0000 H       1  UNL1        0.0378
     57 H          11.8393    2.1370    0.0000 H       1  UNL1        0.0342
     58 H          12.0662    2.9839    0.0000 H       1  UNL1        0.0342
     59 H          11.2193    3.2109    0.0000 H       1  UNL1        0.0342
     60 H           2.1916    1.9862    0.0000 H       1  UNL1        0.0661
     61 H           1.4103    1.5881    0.0000 H       1  UNL1        0.0661
     62 H           1.8084    0.8069    0.0000 H       1  UNL1        0.0661
@<TRIPOS>BOND
     1    13     1    1
     2     1    25    1
     3     2     9    2
     4     3    25    2
     5     4    27    1
     6     4    28    1
     7     5    27    2
     8     6     7    1
     9     6     8    1
    10     6     9    1
    11     6    29    1
    12     7    10    1
    13     7    11    1
    14     7    30    1
    15     8    17    1
    16     8    31    1
    17     8    32    1
    18     9    12    1
    19    10    12    2
    20    10    33    1
    21    11    15    2
    22    11    34    1
    23    12    35    1
    24    13    14    1
    25    13    15    1
    26    13    36    1
    27    14    16    1
    28    14    37    1
    29    14    38    1
    30    15    39    1
    31    16    18    1
    32    16    40    1
    33    16    41    1
    34    17    20    2
    35    17    42    1
    36    18    19    1
    37    18    43    1
    38    18    44    1
    39    19    23    1
    40    19    45    1
    41    19    46    1
    42    20    21    1
    43    20    47    1
    44    21    22    1
    45    21    48    1
    46    21    49    1
    47    22    24    1
    48    22    50    1
    49    22    51    1
    50    23    52    1
    51    23    53    1
    52    23    54    1
    53    24    27    1
    54    24    55    1
    55    24    56    1
    56    25    26    1
    57    26    57    1
    58    26    58    1
    59    26    59    1
    60    28    60    1
    61    28    61    1
    62    28    62    1
