@<TRIPOS>MOLECULE
IMPHY001918
 40 42 0 0 0
SMALL
GASTEIGER

@<TRIPOS>ATOM
      1 O           6.4103   -1.2307    0.0000 O.2     1  UNL1       -0.4537
      2 O           7.9939   -2.1580    0.0000 O.3     1  UNL1       -0.4943
      3 O           2.8660   -1.4260    0.0000 O.3     1  UNL1       -0.4950
      4 O           6.0531    2.0736    0.0000 O.3     1  UNL1       -0.4644
      5 O           7.6995    1.5355    0.0000 O.2     1  UNL1       -0.2448
      6 O          10.9939   -0.4260    0.0000 O.3     1  UNL1       -0.5066
      7 C           5.4641    0.0740    0.0000 C.ar    1  UNL1        0.0351
      8 C           6.9939   -0.4260    0.0000 C.ar    1  UNL1        0.1537
      9 C           6.4103    0.3787    0.0000 C.ar    1  UNL1        0.1124
     10 C           5.4641   -0.9260    0.0000 C.ar    1  UNL1        0.1400
     11 C           7.9939   -0.4260    0.0000 C.ar    1  UNL1        0.0599
     12 C           4.5981    0.5740    0.0000 C.ar    1  UNL1       -0.0467
     13 C           4.5981   -1.4260    0.0000 C.ar    1  UNL1        0.0230
     14 C           8.4939   -1.2920    0.0000 C.ar    1  UNL1        0.1342
     15 C           3.7320   -0.9260    0.0000 C.ar    1  UNL1        0.1236
     16 C           3.7320    0.0740    0.0000 C.ar    1  UNL1       -0.0191
     17 C           8.4939    0.4400    0.0000 C.ar    1  UNL1       -0.0441
     18 C           6.7210    1.3292    0.0000 C.2     1  UNL1        0.3432
     19 C           9.4939   -1.2920    0.0000 C.ar    1  UNL1        0.0222
     20 C           9.4939    0.4400    0.0000 C.ar    1  UNL1       -0.0193
     21 C           9.9939   -0.4260    0.0000 C.ar    1  UNL1        0.1204
     22 C           8.4939   -3.0241    0.0000 C.3     1  UNL1        0.0788
     23 C           2.0000   -0.9260    0.0000 C.3     1  UNL1        0.0788
     24 C           6.3638    3.0241    0.0000 C.3     1  UNL1        0.0820
     25 H           4.5981    1.1940    0.0000 H       1  UNL1        0.0626
     26 H           4.5981   -2.0460    0.0000 H       1  UNL1        0.0691
     27 H           3.1951    0.3840    0.0000 H       1  UNL1        0.0654
     28 H           8.1839    0.9770    0.0000 H       1  UNL1        0.0627
     29 H           9.8039   -1.8290    0.0000 H       1  UNL1        0.0691
     30 H           9.8039    0.9770    0.0000 H       1  UNL1        0.0654
     31 H           7.9570   -3.3341    0.0000 H       1  UNL1        0.0660
     32 H           8.8039   -3.5610    0.0000 H       1  UNL1        0.0660
     33 H           9.0309   -2.7141    0.0000 H       1  UNL1        0.0660
     34 H           2.3100   -0.3891    0.0000 H       1  UNL1        0.0660
     35 H           1.4631   -0.6160    0.0000 H       1  UNL1        0.0660
     36 H           1.6900   -1.4629    0.0000 H       1  UNL1        0.0660
     37 H           6.9531    2.8315    0.0000 H       1  UNL1        0.0661
     38 H           6.5564    3.6134    0.0000 H       1  UNL1        0.0661
     39 H           5.7745    3.2167    0.0000 H       1  UNL1        0.0661
     40 H          11.3039    0.1109    0.0000 H       1  UNL1        0.2921
@<TRIPOS>BOND
     1     1     8   ar
     2     1    10   ar
     3     2    14    1
     4     2    22    1
     5     3    15    1
     6     3    23    1
     7     4    18    1
     8     4    24    1
     9     5    18    2
    10     6    21    1
    11     6    40    1
    12     7     9   ar
    13     7    10   ar
    14     7    12   ar
    15     8     9   ar
    16     8    11    1
    17     9    18    1
    18    10    13   ar
    19    11    14   ar
    20    11    17   ar
    21    12    16   ar
    22    12    25    1
    23    13    15   ar
    24    13    26    1
    25    14    19   ar
    26    15    16   ar
    27    16    27    1
    28    17    20   ar
    29    17    28    1
    30    19    21   ar
    31    19    29    1
    32    20    21   ar
    33    20    30    1
    34    22    31    1
    35    22    32    1
    36    22    33    1
    37    23    34    1
    38    23    35    1
    39    23    36    1
    40    24    37    1
    41    24    38    1
    42    24    39    1
