@<TRIPOS>MOLECULE
IMPHY015845
 17 16 0 0 0
SMALL
GASTEIGER

@<TRIPOS>ATOM
      1 S           4.5981   -0.2500    0.0000 S.3     1  UNL1       -0.0819
      2 S           5.4641    0.2500    0.0000 S.3     1  UNL1       -0.0245
      3 S           6.3301   -0.2500    0.0000 S.3     1  UNL1       -0.0852
      4 C           2.8660   -0.2500    0.0000 C.3     1  UNL1       -0.0460
      5 C           3.7320    0.2500    0.0000 C.3     1  UNL1        0.0044
      6 C           2.0000    0.2500    0.0000 C.3     1  UNL1       -0.0645
      7 C           7.1962    0.2500    0.0000 C.3     1  UNL1       -0.0071
      8 H           2.4675   -0.7249    0.0000 H       1  UNL1        0.0271
      9 H           3.2646   -0.7249    0.0000 H       1  UNL1        0.0271
     10 H           4.1306    0.7249    0.0000 H       1  UNL1        0.0385
     11 H           3.3335    0.7249    0.0000 H       1  UNL1        0.0385
     12 H           2.3100    0.7869    0.0000 H       1  UNL1        0.0230
     13 H           1.4631    0.5600    0.0000 H       1  UNL1        0.0230
     14 H           1.6900   -0.2869    0.0000 H       1  UNL1        0.0230
     15 H           7.5062   -0.2869    0.0000 H       1  UNL1        0.0349
     16 H           7.7331    0.5600    0.0000 H       1  UNL1        0.0349
     17 H           6.8862    0.7869    0.0000 H       1  UNL1        0.0349
@<TRIPOS>BOND
     1     1     2    1
     2     1     5    1
     3     2     3    1
     4     3     7    1
     5     4     5    1
     6     4     6    1
     7     4     8    1
     8     4     9    1
     9     5    10    1
    10     5    11    1
    11     6    12    1
    12     6    13    1
    13     6    14    1
    14     7    15    1
    15     7    16    1
    16     7    17    1
