@<TRIPOS>MOLECULE
IMPHY000403
 58 61 0 0 0
SMALL
GASTEIGER

@<TRIPOS>ATOM
      1 O           8.6445    2.3229    0.0000 O.3     1  UNL1       -0.4826
      2 O          11.3125    2.8265    0.0000 O.3     1  UNL1       -0.3875
      3 O           6.9006   -0.7533    0.0000 O.3     1  UNL1       -0.4898
      4 O           6.9121    2.3160    0.0000 O.2     1  UNL1       -0.2910
      5 O           2.5381    2.8156    0.0000 O.3     1  UNL1       -0.5068
      6 C           9.5425    2.8507    0.0000 C.3     1  UNL1        0.1310
      7 C          10.4446    2.3298    0.0000 C.3     1  UNL1        0.0983
      8 C          10.4366    1.2882    0.0000 C.3     1  UNL1        0.0057
      9 C           9.5266    0.7814    0.0000 C.ar    1  UNL1       -0.0019
     10 C           8.6605    1.2814    0.0000 C.ar    1  UNL1        0.1387
     11 C           7.7945    0.7814    0.0000 C.ar    1  UNL1        0.1018
     12 C          10.0392    3.7186    0.0000 C.3     1  UNL1       -0.0227
     13 C           9.0392    3.7148    0.0000 C.3     1  UNL1       -0.0227
     14 C           7.7945   -0.2186    0.0000 C.ar    1  UNL1        0.1380
     15 C           5.9945    0.8022    0.0000 C.3     1  UNL1        0.0814
     16 C           9.5266   -0.2186    0.0000 C.ar    1  UNL1       -0.0480
     17 C           8.6605   -0.7186    0.0000 C.ar    1  UNL1       -0.0008
     18 C           6.9006    1.3161    0.0000 C.2     1  UNL1        0.1808
     19 C           5.9945   -0.2394    0.0000 C.3     1  UNL1        0.1035
     20 C           8.6605   -1.7186    0.0000 C.3     1  UNL1       -0.0058
     21 C           5.1304    1.3056    0.0000 C.ar    1  UNL1       -0.0334
     22 C           9.5266   -2.2186    0.0000 C.2     1  UNL1       -0.0809
     23 C           5.1343    2.3055    0.0000 C.ar    1  UNL1       -0.0543
     24 C           4.2625    0.8089    0.0000 C.ar    1  UNL1       -0.0543
     25 C           9.5266   -3.2186    0.0000 C.2     1  UNL1       -0.0793
     26 C           4.2702    2.8089    0.0000 C.ar    1  UNL1       -0.0199
     27 C           3.3984    1.3122    0.0000 C.ar    1  UNL1       -0.0199
     28 C           3.4022    2.3122    0.0000 C.ar    1  UNL1        0.1169
     29 C          10.3926   -3.7186    0.0000 C.3     1  UNL1       -0.0440
     30 C           8.6605   -3.7186    0.0000 C.3     1  UNL1       -0.0440
     31 H          10.4458    2.9498    0.0000 H       1  UNL1        0.0636
     32 H          10.6411    0.7030    0.0000 H       1  UNL1        0.0341
     33 H          11.0482    1.3896    0.0000 H       1  UNL1        0.0341
     34 H          10.5773    3.4107    0.0000 H       1  UNL1        0.0269
     35 H          10.3471    4.2567    0.0000 H       1  UNL1        0.0269
     36 H           9.5010    4.0265    0.0000 H       1  UNL1        0.0269
     37 H           9.5749    4.0268    0.0000 H       1  UNL1        0.0269
     38 H           8.7271    4.2505    0.0000 H       1  UNL1        0.0269
     39 H           8.5034    3.4027    0.0000 H       1  UNL1        0.0269
     40 H           5.9981    1.4222    0.0000 H       1  UNL1        0.0463
     41 H          10.0635   -0.5286    0.0000 H       1  UNL1        0.0625
     42 H           5.3836   -0.1333    0.0000 H       1  UNL1        0.0707
     43 H           5.7854   -0.8231    0.0000 H       1  UNL1        0.0707
     44 H          11.8483    2.5144    0.0000 H       1  UNL1        0.2100
     45 H           8.0500   -1.6109    0.0000 H       1  UNL1        0.0357
     46 H           8.4485   -2.3012    0.0000 H       1  UNL1        0.0357
     47 H          10.0635   -1.9086    0.0000 H       1  UNL1        0.0575
     48 H           5.6724    2.6135    0.0000 H       1  UNL1        0.0622
     49 H           4.2601    0.1889    0.0000 H       1  UNL1        0.0622
     50 H           4.2726    3.4289    0.0000 H       1  UNL1        0.0654
     51 H           2.8602    1.0043    0.0000 H       1  UNL1        0.0654
     52 H           8.3505   -3.1817    0.0000 H       1  UNL1        0.0274
     53 H           8.1236   -4.0286    0.0000 H       1  UNL1        0.0274
     54 H          10.0826   -4.2555    0.0000 H       1  UNL1        0.0274
     55 H          10.9295   -4.0286    0.0000 H       1  UNL1        0.0274
     56 H          10.7026   -3.1817    0.0000 H       1  UNL1        0.0274
     57 H           8.9705   -4.2555    0.0000 H       1  UNL1        0.0274
     58 H           2.0000    2.5076    0.0000 H       1  UNL1        0.2921
@<TRIPOS>BOND
     1     1     6    1
     2     1    10    1
     3     2     7    1
     4     2    44    1
     5     3    14    1
     6     3    19    1
     7     4    18    2
     8     5    28    1
     9     5    58    1
    10     6     7    1
    11     6    12    1
    12     6    13    1
    13     7     8    1
    14     7    31    1
    15     8     9    1
    16     8    32    1
    17     8    33    1
    18     9    10   ar
    19     9    16   ar
    20    10    11   ar
    21    11    14   ar
    22    11    18    1
    23    12    34    1
    24    12    35    1
    25    12    36    1
    26    13    37    1
    27    13    38    1
    28    13    39    1
    29    14    17   ar
    30    15    18    1
    31    15    19    1
    32    15    21    1
    33    15    40    1
    34    16    17   ar
    35    16    41    1
    36    17    20    1
    37    19    42    1
    38    19    43    1
    39    20    22    1
    40    20    45    1
    41    20    46    1
    42    21    23   ar
    43    21    24   ar
    44    22    25    2
    45    22    47    1
    46    23    26   ar
    47    23    48    1
    48    24    27   ar
    49    24    49    1
    50    25    29    1
    51    25    30    1
    52    26    28   ar
    53    26    50    1
    54    27    28   ar
    55    27    51    1
    56    29    54    1
    57    29    55    1
    58    29    56    1
    59    30    52    1
    60    30    53    1
    61    30    57    1
