@<TRIPOS>MOLECULE
IMPHY011131
 37 41 0 0 0
SMALL
GASTEIGER

@<TRIPOS>ATOM
      1 O           6.2719   -1.2166    0.0000 O.3     1  UNL1       -0.4829
      2 O           6.4811    1.7552    0.0000 O.3     1  UNL1       -0.4623
      3 O           4.7490    1.7552    0.0000 O.3     1  UNL1       -0.3443
      4 O           2.2123   -1.2333    0.0000 O.3     1  UNL1       -0.4526
      5 O           2.8914   -2.7552    0.0000 O.3     1  UNL1       -0.4525
      6 O          10.0112    1.7794    0.0000 O.3     1  UNL1       -0.5066
      7 C           5.6151    0.2552    0.0000 C.3     1  UNL1        0.0913
      8 C           6.4811   -0.2448    0.0000 C.3     1  UNL1        0.1411
      9 C           4.8780   -0.4119    0.0000 C.ar    1  UNL1        0.0109
     10 C           5.6151    1.2552    0.0000 C.3     1  UNL1        0.2122
     11 C           7.3471    0.2552    0.0000 C.ar    1  UNL1        0.0354
     12 C           5.2832   -1.3197    0.0000 C.ar    1  UNL1        0.1289
     13 C           7.3471    1.2552    0.0000 C.ar    1  UNL1        0.1340
     14 C           3.8499   -0.2887    0.0000 C.ar    1  UNL1       -0.0089
     15 C           4.6882   -2.1672    0.0000 C.ar    1  UNL1        0.0259
     16 C           8.2410   -0.2795    0.0000 C.ar    1  UNL1       -0.0481
     17 C           3.2356   -1.1222    0.0000 C.ar    1  UNL1        0.1667
     18 C           3.6576   -2.0678    0.0000 C.ar    1  UNL1        0.1697
     19 C           8.2410    1.7899    0.0000 C.ar    1  UNL1        0.0220
     20 C           9.1471    0.2344    0.0000 C.ar    1  UNL1       -0.0196
     21 C           9.1471    1.2760    0.0000 C.ar    1  UNL1        0.1204
     22 C           4.7490    2.7552    0.0000 C.3     1  UNL1        0.0405
     23 C           2.0000   -2.2405    0.0000 C.3     1  UNL1        0.2332
     24 H           5.0483    0.5066    0.0000 H       1  UNL1        0.0451
     25 H           6.9822   -0.6099    0.0000 H       1  UNL1        0.0794
     26 H           5.6151    1.8752    0.0000 H       1  UNL1        0.1063
     27 H           3.6038    0.2804    0.0000 H       1  UNL1        0.0659
     28 H           4.9474   -2.7304    0.0000 H       1  UNL1        0.0692
     29 H           8.2339   -0.8994    0.0000 H       1  UNL1        0.0624
     30 H           8.2339    2.4098    0.0000 H       1  UNL1        0.0691
     31 H           9.6828   -0.0777    0.0000 H       1  UNL1        0.0654
     32 H           1.4101   -2.0496    0.0000 H       1  UNL1        0.1166
     33 H           1.7482   -2.8071    0.0000 H       1  UNL1        0.1166
     34 H           5.3690    2.7552    0.0000 H       1  UNL1        0.0525
     35 H           4.7490    3.3752    0.0000 H       1  UNL1        0.0525
     36 H           4.1290    2.7552    0.0000 H       1  UNL1        0.0525
     37 H          10.5493    1.4714    0.0000 H       1  UNL1        0.2921
@<TRIPOS>BOND
     1     1     8    1
     2     1    12    1
     3     2    10    1
     4     2    13    1
     5     3    10    1
     6     3    22    1
     7     4    17    1
     8     4    23    1
     9     5    18    1
    10     5    23    1
    11     6    21    1
    12     6    37    1
    13     7     8    1
    14     7     9    1
    15     7    10    1
    16     7    24    1
    17     8    11    1
    18     8    25    1
    19     9    12   ar
    20     9    14   ar
    21    10    26    1
    22    11    13   ar
    23    11    16   ar
    24    12    15   ar
    25    13    19   ar
    26    14    17   ar
    27    14    27    1
    28    15    18   ar
    29    15    28    1
    30    16    20   ar
    31    16    29    1
    32    17    18   ar
    33    19    21   ar
    34    19    30    1
    35    20    21   ar
    36    20    31    1
    37    22    34    1
    38    22    35    1
    39    22    36    1
    40    23    32    1
    41    23    33    1
