@<TRIPOS>MOLECULE
IMPHY008545
 20 21 0 0 0
SMALL
GASTEIGER

@<TRIPOS>ATOM
      1 O           4.6660    2.0000    0.0000 O.2     1  UNL1       -0.2651
      2 N           4.6660   -1.0000    0.0000 N.ar    1  UNL1       -0.3342
      3 N           5.5321    0.5000    0.0000 N.ar    1  UNL1       -0.1988
      4 C           3.8000   -0.5000    0.0000 C.ar    1  UNL1        0.0551
      5 C           3.8000    0.5000    0.0000 C.ar    1  UNL1        0.0647
      6 C           2.9061   -1.0347    0.0000 C.ar    1  UNL1       -0.0374
      7 C           2.9061    1.0347    0.0000 C.ar    1  UNL1       -0.0474
      8 C           4.6660    1.0000    0.0000 C.ar    1  UNL1        0.2807
      9 C           4.6660   -2.0000    0.0000 C.3     1  UNL1        0.0132
     10 C           5.5321   -0.5000    0.0000 C.ar    1  UNL1        0.1000
     11 C           2.0000   -0.5208    0.0000 C.ar    1  UNL1       -0.0598
     12 C           2.0000    0.5208    0.0000 C.ar    1  UNL1       -0.0609
     13 H           2.9132   -1.6546    0.0000 H       1  UNL1        0.0638
     14 H           2.9132    1.6546    0.0000 H       1  UNL1        0.0626
     15 H           4.0460   -2.0000    0.0000 H       1  UNL1        0.0456
     16 H           4.6660   -2.6200    0.0000 H       1  UNL1        0.0456
     17 H           5.2860   -2.0000    0.0000 H       1  UNL1        0.0456
     18 H           6.0690   -0.8100    0.0000 H       1  UNL1        0.1030
     19 H           1.4643   -0.8329    0.0000 H       1  UNL1        0.0618
     20 H           1.4643    0.8329    0.0000 H       1  UNL1        0.0618
@<TRIPOS>BOND
     1     1     8    2
     2     2     4   ar
     3     2     9    1
     4     2    10   ar
     5     3     8   ar
     6     3    10   ar
     7     4     5   ar
     8     4     6   ar
     9     5     7   ar
    10     5     8   ar
    11     6    11   ar
    12     6    13    1
    13     7    12   ar
    14     7    14    1
    15     9    15    1
    16     9    16    1
    17     9    17    1
    18    10    18    1
    19    11    12   ar
    20    11    19    1
    21    12    20    1
