@<TRIPOS>MOLECULE
IMPHY008627
 93 98 0 0 0
SMALL
GASTEIGER

@<TRIPOS>ATOM
      1 O           6.0538    1.7374    0.0000 O.3     1  UNL1       -0.3403
      2 O           2.5357   -1.3077    0.0000 O.3     1  UNL1       -0.3912
      3 O           6.1340   -0.0618    0.0000 O.3     1  UNL1       -0.3873
      4 O           4.5357    2.7064    0.0000 O.3     1  UNL1       -0.4569
      5 O           6.1172    2.1689    0.0000 O.3     1  UNL1       -0.4551
      6 O           5.1877    3.2374    0.0000 O.3     1  UNL1       -0.4342
      7 O           7.0120   -0.8082    0.0000 O.2     1  UNL1       -0.2971
      8 O           3.4373   -4.9916    0.0000 O.2     1  UNL1       -0.2967
      9 O           7.0778   -5.5695    0.0000 O.2     1  UNL1       -0.4707
     10 O           2.8885    3.2417    0.0000 O.2     1  UNL1       -0.2512
     11 O           7.4441    1.0556    0.0000 O.2     1  UNL1       -0.2512
     12 O           6.9198    3.2374    0.0000 O.2     1  UNL1       -0.2505
     13 C           5.1877    0.2374    0.0000 C.3     1  UNL1        0.0375
     14 C           4.3058   -1.3319    0.0000 C.3     1  UNL1        0.0078
     15 C           5.2038   -0.8041    0.0000 C.3     1  UNL1        0.0360
     16 C           4.3217    0.7374    0.0000 C.3     1  UNL1       -0.0131
     17 C           4.2974   -2.4169    0.0000 C.3     1  UNL1       -0.0192
     18 C           4.3217    1.7374    0.0000 C.3     1  UNL1        0.0744
     19 C           5.2370   -2.9594    0.0000 C.3     1  UNL1       -0.0080
     20 C           3.4037   -0.8111    0.0000 C.3     1  UNL1        0.0618
     21 C           3.4117    0.2305    0.0000 C.3     1  UNL1       -0.0220
     22 C           5.3908    0.6073    0.0000 C.3     1  UNL1        0.1042
     23 C           6.0538    0.7374    0.0000 C.3     1  UNL1        0.0607
     24 C           4.7436    1.7283    0.0000 C.3     1  UNL1        0.1535
     25 C           6.1557   -1.3248    0.0000 C.2     1  UNL1        0.1383
     26 C           5.4745    1.4029    0.0000 C.3     1  UNL1        0.1666
     27 C           6.1725   -2.4096    0.0000 C.3     1  UNL1        0.0128
     28 C           5.1877    2.2374    0.0000 C.3     1  UNL1        0.2139
     29 C           3.4977   -3.1406    0.0000 C.3     1  UNL1        0.0104
     30 C           5.0100   -4.0138    0.0000 C.3     1  UNL1        0.0515
     31 C           3.4436   -1.8386    0.0000 C.3     1  UNL1       -0.0563
     32 C           3.4557    2.2374    0.0000 C.3     1  UNL1       -0.0500
     33 C           3.9373   -4.1256    0.0000 C.2     1  UNL1        0.1416
     34 C           6.1031   -3.4594    0.0000 C.3     1  UNL1       -0.0579
     35 C           5.6779   -4.7581    0.0000 C.ar    1  UNL1        0.0010
     36 C           5.4683   -5.7359    0.0000 C.ar    1  UNL1       -0.0201
     37 C           6.6726   -4.6553    0.0000 C.ar    1  UNL1        0.0955
     38 C           3.8666    3.4496    0.0000 C.2     1  UNL1        0.3043
     39 C           7.1020    1.9953    0.0000 C.2     1  UNL1        0.3044
     40 C           6.0538    3.7374    0.0000 C.2     1  UNL1        0.3121
     41 C           6.3334   -6.2374    0.0000 C.ar    1  UNL1        0.0920
     42 C           6.0538    4.7374    0.0000 C.3     1  UNL1        0.0535
     43 C           4.1756    4.4006    0.0000 C.3     1  UNL1        0.0332
     44 C           7.7448    2.7613    0.0000 C.3     1  UNL1        0.0332
     45 C           6.9198    5.2374    0.0000 C.3     1  UNL1       -0.0432
     46 C           5.1877    5.2374    0.0000 C.3     1  UNL1       -0.0523
     47 C           6.9198    6.2374    0.0000 C.3     1  UNL1       -0.0645
     48 H           5.9316   -0.3650    0.0000 H       1  UNL1        0.0391
     49 H           3.5889    1.1680    0.0000 H       1  UNL1        0.0317
     50 H           3.5218   -2.0692    0.0000 H       1  UNL1        0.0317
     51 H           2.6700   -0.3818    0.0000 H       1  UNL1        0.0599
     52 H           3.2072    0.8158    0.0000 H       1  UNL1        0.0293
     53 H           2.8001    0.1291    0.0000 H       1  UNL1        0.0293
     54 H           6.1844    0.9119    0.0000 H       1  UNL1        0.0638
     55 H           6.2658    0.1548    0.0000 H       1  UNL1        0.0568
     56 H           6.6644    0.8450    0.0000 H       1  UNL1        0.0568
     57 H           5.4042    2.2632    0.0000 H       1  UNL1        0.0780
     58 H           5.2832    2.2311    0.0000 H       1  UNL1        0.0798
     59 H           6.3905   -2.9900    0.0000 H       1  UNL1        0.0347
     60 H           6.7816   -2.2941    0.0000 H       1  UNL1        0.0347
     61 H           4.4516    2.6624    0.0000 H       1  UNL1        0.1064
     62 H           3.1323   -2.6398    0.0000 H       1  UNL1        0.0345
     63 H           2.9612   -3.4514    0.0000 H       1  UNL1        0.0345
     64 H           4.7044   -4.8069    0.0000 H       1  UNL1        0.0432
     65 H           3.1295   -1.3040    0.0000 H       1  UNL1        0.0236
     66 H           2.9091   -2.1527    0.0000 H       1  UNL1        0.0236
     67 H           3.7578   -2.3731    0.0000 H       1  UNL1        0.0236
     68 H           3.7657    2.7743    0.0000 H       1  UNL1        0.0238
     69 H           2.9188    2.5474    0.0000 H       1  UNL1        0.0238
     70 H           3.1457    1.7004    0.0000 H       1  UNL1        0.0238
     71 H           5.7931   -3.9963    0.0000 H       1  UNL1        0.0236
     72 H           6.6400   -3.7694    0.0000 H       1  UNL1        0.0236
     73 H           6.4131   -2.9224    0.0000 H       1  UNL1        0.0236
     74 H           2.0000   -0.9957    0.0000 H       1  UNL1        0.2098
     75 H           6.0051   -0.6683    0.0000 H       1  UNL1        0.2100
     76 H           4.9014   -5.9871    0.0000 H       1  UNL1        0.0652
     77 H           6.9835   -4.1189    0.0000 H       1  UNL1        0.1032
     78 H           6.3972   -6.8541    0.0000 H       1  UNL1        0.1029
     79 H           6.0538    5.5874    0.0000 H       1  UNL1        0.0410
     80 H           4.7652    4.2091    0.0000 H       1  UNL1        0.0342
     81 H           4.3672    4.9903    0.0000 H       1  UNL1        0.0342
     82 H           3.5859    4.5922    0.0000 H       1  UNL1        0.0342
     83 H           8.2198    2.3628    0.0000 H       1  UNL1        0.0342
     84 H           8.1434    3.2363    0.0000 H       1  UNL1        0.0342
     85 H           7.2699    3.1599    0.0000 H       1  UNL1        0.0342
     86 H           7.1318    4.6548    0.0000 H       1  UNL1        0.0270
     87 H           7.5304    5.3450    0.0000 H       1  UNL1        0.0270
     88 H           5.4977    5.7743    0.0000 H       1  UNL1        0.0238
     89 H           4.6508    5.5474    0.0000 H       1  UNL1        0.0238
     90 H           4.8777    4.7004    0.0000 H       1  UNL1        0.0238
     91 H           7.5398    6.2374    0.0000 H       1  UNL1        0.0230
     92 H           6.9198    6.8574    0.0000 H       1  UNL1        0.0230
     93 H           6.2998    6.2374    0.0000 H       1  UNL1        0.0230
@<TRIPOS>BOND
     1     1    23    1
     2     1    28    1
     3     2    20    1
     4     2    74    1
     5     3    22    1
     6     3    75    1
     7     4    24    1
     8     4    38    1
     9     5    26    1
    10     5    39    1
    11     6    28    1
    12     6    40    1
    13     7    25    2
    14     8    33    2
    15     9    37   ar
    16     9    41   ar
    17    10    38    2
    18    11    39    2
    19    12    40    2
    20    13    15    1
    21    13    16    1
    22    13    22    1
    23    13    23    1
    24    14    15    1
    25    14    17    1
    26    14    20    1
    27    14    31    1
    28    15    25    1
    29    15    48    1
    30    16    18    1
    31    16    21    1
    32    16    49    1
    33    17    19    1
    34    17    29    1
    35    17    50    1
    36    18    24    1
    37    18    28    1
    38    18    32    1
    39    19    27    1
    40    19    30    1
    41    19    34    1
    42    20    21    1
    43    20    51    1
    44    21    52    1
    45    21    53    1
    46    22    26    1
    47    22    54    1
    48    23    55    1
    49    23    56    1
    50    24    26    1
    51    24    57    1
    52    25    27    1
    53    26    58    1
    54    27    59    1
    55    27    60    1
    56    28    61    1
    57    29    33    1
    58    29    62    1
    59    29    63    1
    60    30    33    1
    61    30    35    1
    62    30    64    1
    63    31    65    1
    64    31    66    1
    65    31    67    1
    66    32    68    1
    67    32    69    1
    68    32    70    1
    69    34    71    1
    70    34    72    1
    71    34    73    1
    72    35    36   ar
    73    35    37   ar
    74    36    41   ar
    75    36    76    1
    76    37    77    1
    77    38    43    1
    78    39    44    1
    79    40    42    1
    80    41    78    1
    81    42    45    1
    82    42    46    1
    83    42    79    1
    84    43    80    1
    85    43    81    1
    86    43    82    1
    87    44    83    1
    88    44    84    1
    89    44    85    1
    90    45    47    1
    91    45    86    1
    92    45    87    1
    93    46    88    1
    94    46    89    1
    95    46    90    1
    96    47    91    1
    97    47    92    1
    98    47    93    1
