@<TRIPOS>MOLECULE
IMPHY016648
 28 28 0 0 0
SMALL
GASTEIGER

@<TRIPOS>ATOM
      1 BR          2.0000    1.2500    0.0000 Br      1  UNL1       -0.0867
      2 O           4.5981    1.7500    0.0000 O.3     1  UNL1       -0.4618
      3 O           2.8660    1.7500    0.0000 O.2     1  UNL1       -0.2456
      4 C           2.8660   -1.2500    0.0000 C.ar    1  UNL1       -0.0208
      5 C           2.8660   -0.2500    0.0000 C.2     1  UNL1       -0.0231
      6 C           2.0000   -1.7500    0.0000 C.ar    1  UNL1       -0.0543
      7 C           3.7320   -1.7500    0.0000 C.ar    1  UNL1       -0.0543
      8 C           2.0000    0.2500    0.0000 C.3     1  UNL1        0.0292
      9 C           3.7320    0.2500    0.0000 C.2     1  UNL1        0.0270
     10 C           2.0000   -2.7500    0.0000 C.ar    1  UNL1       -0.0612
     11 C           3.7320   -2.7500    0.0000 C.ar    1  UNL1       -0.0612
     12 C           2.8660   -3.2500    0.0000 C.ar    1  UNL1       -0.0617
     13 C           3.7320    1.2500    0.0000 C.2     1  UNL1        0.3322
     14 C           4.5981    2.7500    0.0000 C.3     1  UNL1        0.0900
     15 C           5.4641    3.2500    0.0000 C.3     1  UNL1       -0.0306
     16 H           1.4631   -1.4400    0.0000 H       1  UNL1        0.0624
     17 H           4.2690   -1.4400    0.0000 H       1  UNL1        0.0624
     18 H           1.3894    0.3577    0.0000 H       1  UNL1        0.0431
     19 H           1.7880   -0.3326    0.0000 H       1  UNL1        0.0431
     20 H           4.2690   -0.0600    0.0000 H       1  UNL1        0.0692
     21 H           1.4631   -3.0600    0.0000 H       1  UNL1        0.0618
     22 H           4.2690   -3.0600    0.0000 H       1  UNL1        0.0618
     23 H           2.8660   -3.8700    0.0000 H       1  UNL1        0.0618
     24 H           4.3860    3.3326    0.0000 H       1  UNL1        0.0695
     25 H           3.9875    2.6423    0.0000 H       1  UNL1        0.0695
     26 H           5.7741    2.7131    0.0000 H       1  UNL1        0.0262
     27 H           6.0010    3.5600    0.0000 H       1  UNL1        0.0262
     28 H           5.1541    3.7869    0.0000 H       1  UNL1        0.0262
@<TRIPOS>BOND
     1     1     8    1
     2     2    13    1
     3     2    14    1
     4     3    13    2
     5     4     5    1
     6     4     6   ar
     7     4     7   ar
     8     5     8    1
     9     5     9    2
    10     6    10   ar
    11     6    16    1
    12     7    11   ar
    13     7    17    1
    14     8    18    1
    15     8    19    1
    16     9    13    1
    17     9    20    1
    18    10    12   ar
    19    10    21    1
    20    11    12   ar
    21    11    22    1
    22    12    23    1
    23    14    15    1
    24    14    24    1
    25    14    25    1
    26    15    26    1
    27    15    27    1
    28    15    28    1
