@<TRIPOS>MOLECULE
IMPHY008887
 44 47 0 0 0
SMALL
GASTEIGER

@<TRIPOS>ATOM
      1 O           2.8718    0.7163    0.0000 O.2     1  UNL1       -0.2751
      2 O           2.8602    3.7163    0.0000 O.3     1  UNL1       -0.3747
      3 N           6.4040    0.7160    0.0000 N.3     1  UNL1       -0.2971
      4 N           7.3920   -3.4741    0.0000 N.ar    1  UNL1       -0.3604
      5 N           3.7320    2.2196    0.0000 N.am    1  UNL1       -0.2899
      6 C           6.3879   -0.3255    0.0000 C.3     1  UNL1        0.0397
      7 C           5.5219   -0.8255    0.0000 C.2     1  UNL1       -0.0254
      8 C           7.2539   -0.8255    0.0000 C.3     1  UNL1       -0.0059
      9 C           5.5059    1.2438    0.0000 C.3     1  UNL1        0.0138
     10 C           4.6038    0.7230    0.0000 C.3     1  UNL1        0.0670
     11 C           7.2539   -1.8255    0.0000 C.ar    1  UNL1       -0.0200
     12 C           5.5219   -1.8255    0.0000 C.ar    1  UNL1       -0.0112
     13 C           6.3879   -2.3255    0.0000 C.ar    1  UNL1        0.0103
     14 C           4.6119   -0.3186    0.0000 C.2     1  UNL1       -0.0658
     15 C           6.4040   -3.3670    0.0000 C.ar    1  UNL1        0.0473
     16 C           7.2757    1.2060    0.0000 C.3     1  UNL1       -0.0121
     17 C           7.8718   -2.6038    0.0000 C.ar    1  UNL1        0.0060
     18 C           4.6119   -2.3323    0.0000 C.ar    1  UNL1       -0.0536
     19 C           3.7359    1.2196    0.0000 C.2     1  UNL1        0.2229
     20 C           5.5059   -3.8947    0.0000 C.ar    1  UNL1       -0.0378
     21 C           4.6038   -3.3739    0.0000 C.ar    1  UNL1       -0.0592
     22 C           2.8641    2.7163    0.0000 C.3     1  UNL1        0.1185
     23 C           2.0000    2.2130    0.0000 C.3     1  UNL1       -0.0220
     24 H           7.1273    0.0938    0.0000 H       1  UNL1        0.0515
     25 H           7.8645   -0.9331    0.0000 H       1  UNL1        0.0332
     26 H           7.4660   -0.2429    0.0000 H       1  UNL1        0.0332
     27 H           5.9069    1.7167    0.0000 H       1  UNL1        0.0437
     28 H           5.1086    1.7198    0.0000 H       1  UNL1        0.0437
     29 H           4.0687    0.4099    0.0000 H       1  UNL1        0.0450
     30 H           4.0786   -0.6348    0.0000 H       1  UNL1        0.0583
     31 H           7.5795    0.6655    0.0000 H       1  UNL1        0.0391
     32 H           7.8162    1.5098    0.0000 H       1  UNL1        0.0391
     33 H           6.9719    1.7465    0.0000 H       1  UNL1        0.0391
     34 H           8.4897   -2.5521    0.0000 H       1  UNL1        0.0810
     35 H           4.0786   -2.0161    0.0000 H       1  UNL1        0.0624
     36 H           7.6780   -4.0242    0.0000 H       1  UNL1        0.1653
     37 H           5.5083   -4.5147    0.0000 H       1  UNL1        0.0638
     38 H           4.0657   -3.6818    0.0000 H       1  UNL1        0.0618
     39 H           4.2678    2.5317    0.0000 H       1  UNL1        0.1511
     40 H           2.3260    3.0242    0.0000 H       1  UNL1        0.0802
     41 H           1.6879    2.7487    0.0000 H       1  UNL1        0.0271
     42 H           1.4643    1.9009    0.0000 H       1  UNL1        0.0271
     43 H           2.3121    1.6772    0.0000 H       1  UNL1        0.0271
     44 H           2.3221    4.0242    0.0000 H       1  UNL1        0.2117
@<TRIPOS>BOND
     1     1    19    2
     2     2    22    1
     3     2    44    1
     4     3     6    1
     5     3     9    1
     6     3    16    1
     7     4    15   ar
     8     4    17   ar
     9     4    36    1
    10     5    19   am
    11     5    22    1
    12     5    39    1
    13     6     7    1
    14     6     8    1
    15     6    24    1
    16     7    12    1
    17     7    14    2
    18     8    11    1
    19     8    25    1
    20     8    26    1
    21     9    10    1
    22     9    27    1
    23     9    28    1
    24    10    14    1
    25    10    19    1
    26    10    29    1
    27    11    13   ar
    28    11    17   ar
    29    12    13   ar
    30    12    18   ar
    31    13    15   ar
    32    14    30    1
    33    15    20   ar
    34    16    31    1
    35    16    32    1
    36    16    33    1
    37    17    34    1
    38    18    21   ar
    39    18    35    1
    40    20    21   ar
    41    20    37    1
    42    21    38    1
    43    22    23    1
    44    22    40    1
    45    23    41    1
    46    23    42    1
    47    23    43    1
