@<TRIPOS>MOLECULE
IMPHY010513
 106 112 0 0 0
SMALL
GASTEIGER

@<TRIPOS>ATOM
      1 O           4.0848   -2.1764    0.0000 O.3     1  UNL1       -0.4660
      2 O           4.2814   -3.1569    0.0000 O.2     1  UNL1       -0.2477
      3 O           7.6962    1.3059    0.0000 O.3     1  UNL1       -0.4675
      4 O           6.0428    1.8220    0.0000 O.2     1  UNL1       -0.2501
      5 N           5.0981   -1.0512    0.0000 N.ar    1  UNL1       -0.3216
      6 N           5.6098   -3.6038    0.0000 N.ar    1  UNL1       -0.3554
      7 N           3.7320    2.9876    0.0000 N.3     1  UNL1       -0.3017
      8 N           9.5898   -2.0990    0.0000 N.3     1  UNL1       -0.3017
      9 C           5.7830   -1.8360    0.0000 C.3     1  UNL1        0.1828
     10 C           6.8036   -1.6272    0.0000 C.3     1  UNL1       -0.0120
     11 C           5.4071   -0.1002    0.0000 C.ar    1  UNL1        0.0383
     12 C           6.4225    0.1321    0.0000 C.3     1  UNL1        0.0969
     13 C           7.1254   -0.6366    0.0000 C.3     1  UNL1       -0.0316
     14 C           6.1469   -2.7674    0.0000 C.ar    1  UNL1        0.0576
     15 C           4.5981    0.4876    0.0000 C.ar    1  UNL1       -0.0169
     16 C           4.0981   -1.0512    0.0000 C.ar    1  UNL1        0.0508
     17 C           3.7891   -0.1002    0.0000 C.ar    1  UNL1        0.0034
     18 C           7.1088   -3.0182    0.0000 C.ar    1  UNL1       -0.0150
     19 C           4.5981    1.4876    0.0000 C.3     1  UNL1       -0.0126
     20 C           5.0322   -2.4964    0.0000 C.2     1  UNL1        0.3392
     21 C           3.7320    1.9876    0.0000 C.3     1  UNL1        0.0030
     22 C           7.8812   -2.3830    0.0000 C.3     1  UNL1       -0.0125
     23 C           6.7205    1.0867    0.0000 C.2     1  UNL1        0.3158
     24 C           7.1693   -4.0104    0.0000 C.ar    1  UNL1        0.0032
     25 C           2.8660    4.4876    0.0000 C.3     1  UNL1       -0.0285
     26 C           2.8660    3.4876    0.0000 C.3     1  UNL1        0.0017
     27 C           8.8174   -2.7342    0.0000 C.3     1  UNL1        0.0030
     28 C           6.2378   -4.3743    0.0000 C.ar    1  UNL1        0.0470
     29 C           3.4131   -1.8360    0.0000 C.ar    1  UNL1       -0.0376
     30 C           4.5981    3.4876    0.0000 C.3     1  UNL1       -0.0011
     31 C          10.1981   -0.4773    0.0000 C.3     1  UNL1       -0.0285
     32 C           3.7320    4.9876    0.0000 C.3     1  UNL1       -0.0479
     33 C           9.4258   -1.1125    0.0000 C.3     1  UNL1        0.0017
     34 C           2.7736    0.1321    0.0000 C.ar    1  UNL1       -0.0523
     35 C           4.5981    4.4876    0.0000 C.3     1  UNL1       -0.0399
     36 C          10.5261   -2.4502    0.0000 C.3     1  UNL1       -0.0011
     37 C          11.1344   -0.8285    0.0000 C.3     1  UNL1       -0.0479
     38 C          11.2984   -1.8150    0.0000 C.3     1  UNL1       -0.0399
     39 C           2.0000    4.9876    0.0000 C.3     1  UNL1       -0.0519
     40 C           2.3926   -1.6272    0.0000 C.ar    1  UNL1       -0.0598
     41 C           2.0707   -0.6366    0.0000 C.ar    1  UNL1       -0.0611
     42 C          10.0342    0.5092    0.0000 C.3     1  UNL1       -0.0519
     43 C           7.9501   -4.6352    0.0000 C.ar    1  UNL1       -0.0523
     44 C           6.0873   -5.3629    0.0000 C.ar    1  UNL1       -0.0378
     45 C           2.0000    5.9876    0.0000 C.3     1  UNL1       -0.0650
     46 C           7.7995   -5.6238    0.0000 C.ar    1  UNL1       -0.0611
     47 C           6.8680   -5.9876    0.0000 C.ar    1  UNL1       -0.0598
     48 C          10.8065    1.1444    0.0000 C.3     1  UNL1       -0.0650
     49 C           3.3340   -2.8369    0.0000 C.3     1  UNL1        0.0817
     50 C           7.9942    2.2604    0.0000 C.3     1  UNL1        0.0817
     51 H           6.8220   -2.2470    0.0000 H       1  UNL1        0.0298
     52 H           7.4173   -1.7151    0.0000 H       1  UNL1        0.0298
     53 H           7.0277    0.2668    0.0000 H       1  UNL1        0.0477
     54 H           7.6736   -0.9263    0.0000 H       1  UNL1        0.0278
     55 H           7.5046   -0.1461    0.0000 H       1  UNL1        0.0278
     56 H           5.2087    1.3800    0.0000 H       1  UNL1        0.0326
     57 H           4.8101    2.0702    0.0000 H       1  UNL1        0.0326
     58 H           3.1215    2.0953    0.0000 H       1  UNL1        0.0430
     59 H           3.5200    1.4050    0.0000 H       1  UNL1        0.0430
     60 H           4.9907   -3.6389    0.0000 H       1  UNL1        0.1657
     61 H           8.1964   -1.8491    0.0000 H       1  UNL1        0.0326
     62 H           7.4102   -1.9798    0.0000 H       1  UNL1        0.0326
     63 H           2.8660    5.1076    0.0000 H       1  UNL1        0.0313
     64 H           2.2554    3.5953    0.0000 H       1  UNL1        0.0429
     65 H           2.6540    2.9050    0.0000 H       1  UNL1        0.0429
     66 H           8.5022   -3.2681    0.0000 H       1  UNL1        0.0430
     67 H           9.2884   -3.1374    0.0000 H       1  UNL1        0.0430
     68 H           3.6115   -2.4234    0.0000 H       1  UNL1        0.0638
     69 H           4.8101    2.9050    0.0000 H       1  UNL1        0.0426
     70 H           5.2087    3.5953    0.0000 H       1  UNL1        0.0426
     71 H          10.6770   -0.0835    0.0000 H       1  UNL1        0.0313
     72 H           4.1306    5.4626    0.0000 H       1  UNL1        0.0269
     73 H           3.3335    5.4626    0.0000 H       1  UNL1        0.0269
     74 H           9.1211   -0.5726    0.0000 H       1  UNL1        0.0429
     75 H           8.8412   -1.3188    0.0000 H       1  UNL1        0.0429
     76 H           2.5889    0.7239    0.0000 H       1  UNL1        0.0624
     77 H           5.2087    4.3800    0.0000 H       1  UNL1        0.0278
     78 H           4.8101    5.0702    0.0000 H       1  UNL1        0.0278
     79 H          10.2108   -2.9841    0.0000 H       1  UNL1        0.0426
     80 H          10.9971   -2.8534    0.0000 H       1  UNL1        0.0426
     81 H          11.7544   -0.8346    0.0000 H       1  UNL1        0.0269
     82 H          11.2481   -0.2191    0.0000 H       1  UNL1        0.0269
     83 H          11.6031   -2.3550    0.0000 H       1  UNL1        0.0278
     84 H          11.8830   -1.6087    0.0000 H       1  UNL1        0.0278
     85 H           1.3894    5.0953    0.0000 H       1  UNL1        0.0266
     86 H           1.7880    4.4050    0.0000 H       1  UNL1        0.0266
     87 H           1.9795   -2.0896    0.0000 H       1  UNL1        0.0618
     88 H           9.7295    1.0491    0.0000 H       1  UNL1        0.0266
     89 H           9.4495    0.3028    0.0000 H       1  UNL1        0.0266
     90 H           1.4648   -0.5054    0.0000 H       1  UNL1        0.0618
     91 H           8.5276   -4.4096    0.0000 H       1  UNL1        0.0624
     92 H           5.5098   -5.5885    0.0000 H       1  UNL1        0.0638
     93 H           2.6200    5.9876    0.0000 H       1  UNL1        0.0230
     94 H           2.0000    6.6076    0.0000 H       1  UNL1        0.0230
     95 H           1.3800    5.9876    0.0000 H       1  UNL1        0.0230
     96 H           8.2836   -6.0111    0.0000 H       1  UNL1        0.0618
     97 H           6.7746   -6.6006    0.0000 H       1  UNL1        0.0618
     98 H          11.2004    0.6655    0.0000 H       1  UNL1        0.0230
     99 H          11.2854    1.5382    0.0000 H       1  UNL1        0.0230
    100 H          10.4127    1.6232    0.0000 H       1  UNL1        0.0230
    101 H           2.9245   -2.3714    0.0000 H       1  UNL1        0.0661
    102 H           2.8684   -3.2464    0.0000 H       1  UNL1        0.0661
    103 H           3.7435   -3.3025    0.0000 H       1  UNL1        0.0661
    104 H           8.5860    2.0757    0.0000 H       1  UNL1        0.0661
    105 H           8.1789    2.8523    0.0000 H       1  UNL1        0.0661
    106 H           7.4024    2.4452    0.0000 H       1  UNL1        0.0661
@<TRIPOS>BOND
     1     1    20    1
     2     1    49    1
     3     2    20    2
     4     3    23    1
     5     3    50    1
     6     4    23    2
     7     5     9    1
     8     5    11   ar
     9     5    16   ar
    10     6    14   ar
    11     6    28   ar
    12     6    60    1
    13     7    21    1
    14     7    26    1
    15     7    30    1
    16     8    27    1
    17     8    33    1
    18     8    36    1
    19     9    10    1
    20     9    14    1
    21     9    20    1
    22    10    13    1
    23    10    51    1
    24    10    52    1
    25    11    12    1
    26    11    15   ar
    27    12    13    1
    28    12    23    1
    29    12    53    1
    30    13    54    1
    31    13    55    1
    32    14    18   ar
    33    15    17   ar
    34    15    19    1
    35    16    17   ar
    36    16    29   ar
    37    17    34   ar
    38    18    22    1
    39    18    24   ar
    40    19    21    1
    41    19    56    1
    42    19    57    1
    43    21    58    1
    44    21    59    1
    45    22    27    1
    46    22    61    1
    47    22    62    1
    48    24    28   ar
    49    24    43   ar
    50    25    26    1
    51    25    32    1
    52    25    39    1
    53    25    63    1
    54    26    64    1
    55    26    65    1
    56    27    66    1
    57    27    67    1
    58    28    44   ar
    59    29    40   ar
    60    29    68    1
    61    30    35    1
    62    30    69    1
    63    30    70    1
    64    31    33    1
    65    31    37    1
    66    31    42    1
    67    31    71    1
    68    32    35    1
    69    32    72    1
    70    32    73    1
    71    33    74    1
    72    33    75    1
    73    34    41   ar
    74    34    76    1
    75    35    77    1
    76    35    78    1
    77    36    38    1
    78    36    79    1
    79    36    80    1
    80    37    38    1
    81    37    81    1
    82    37    82    1
    83    38    83    1
    84    38    84    1
    85    39    45    1
    86    39    85    1
    87    39    86    1
    88    40    41   ar
    89    40    87    1
    90    41    90    1
    91    42    48    1
    92    42    88    1
    93    42    89    1
    94    43    46   ar
    95    43    91    1
    96    44    47   ar
    97    44    92    1
    98    45    93    1
    99    45    94    1
   100    45    95    1
   101    46    47   ar
   102    46    96    1
   103    47    97    1
   104    48    98    1
   105    48    99    1
   106    48   100    1
   107    49   101    1
   108    49   102    1
   109    49   103    1
   110    50   104    1
   111    50   105    1
   112    50   106    1
