@<TRIPOS>MOLECULE
IMPHY008142
 21 21 0 0 0
SMALL
GASTEIGER

@<TRIPOS>ATOM
      1 O           4.2690    1.9050    0.0000 O.3     1  UNL1       -0.4914
      2 O           2.5369    0.9050    0.0000 O.3     1  UNL1       -0.5033
      3 O           6.0010   -2.0950    0.0000 O.3     1  UNL1       -0.3904
      4 C           5.1350   -0.5950    0.0000 C.ar    1  UNL1       -0.0185
      5 C           5.1350    0.4050    0.0000 C.ar    1  UNL1       -0.0110
      6 C           4.2690    0.9050    0.0000 C.ar    1  UNL1        0.1616
      7 C           4.2690   -1.0950    0.0000 C.ar    1  UNL1       -0.0527
      8 C           3.4030    0.4050    0.0000 C.ar    1  UNL1        0.1585
      9 C           6.0010   -1.0950    0.0000 C.3     1  UNL1        0.0693
     10 C           3.4030   -0.5950    0.0000 C.ar    1  UNL1       -0.0162
     11 C           5.1350    2.4050    0.0000 C.3     1  UNL1        0.0790
     12 H           5.6720    0.7150    0.0000 H       1  UNL1        0.0659
     13 H           4.2690   -1.7150    0.0000 H       1  UNL1        0.0622
     14 H           6.6116   -1.2027    0.0000 H       1  UNL1        0.0607
     15 H           6.2131   -0.5124    0.0000 H       1  UNL1        0.0607
     16 H           2.8660   -0.9050    0.0000 H       1  UNL1        0.0655
     17 H           5.4450    1.8681    0.0000 H       1  UNL1        0.0660
     18 H           5.6720    2.7150    0.0000 H       1  UNL1        0.0660
     19 H           4.8250    2.9419    0.0000 H       1  UNL1        0.0660
     20 H           2.0000    0.5950    0.0000 H       1  UNL1        0.2923
     21 H           6.5380   -2.4050    0.0000 H       1  UNL1        0.2098
@<TRIPOS>BOND
     1     1     6    1
     2     1    11    1
     3     2     8    1
     4     2    20    1
     5     3     9    1
     6     3    21    1
     7     4     5   ar
     8     4     7   ar
     9     4     9    1
    10     5     6   ar
    11     5    12    1
    12     6     8   ar
    13     7    10   ar
    14     7    13    1
    15     8    10   ar
    16     9    14    1
    17     9    15    1
    18    10    16    1
    19    11    17    1
    20    11    18    1
    21    11    19    1
