@<TRIPOS>MOLECULE
IMPHY006949
 23 24 0 0 0
SMALL
GASTEIGER

@<TRIPOS>ATOM
      1 O           2.0000   -1.6229    0.0000 O.2     1  UNL1       -0.2973
      2 N           4.5120    0.9741    0.0000 N.3     1  UNL1       -0.2987
      3 C           5.2486   -0.0085    0.0000 C.3     1  UNL1        0.0171
      4 C           4.9898   -0.9745    0.0000 C.3     1  UNL1        0.0171
      5 C           6.6475   -0.5173    0.0000 C.3     1  UNL1       -0.0355
      6 C           6.3887   -1.4833    0.0000 C.3     1  UNL1       -0.0355
      7 C           3.7687   -1.8401    0.0000 C.3     1  UNL1        0.0215
      8 C           3.2153   -0.3197    0.0000 C.3     1  UNL1        0.0215
      9 C           2.9397   -1.2809    0.0000 C.2     1  UNL1        0.1363
     10 C           4.0120    1.8401    0.0000 C.3     1  UNL1       -0.0122
     11 H           5.0726   -1.5889    0.0000 H       1  UNL1        0.0467
     12 H           5.6179    0.4894    0.0000 H       1  UNL1        0.0467
     13 H           7.2415   -0.6951    0.0000 H       1  UNL1        0.0281
     14 H           6.8424    0.0712    0.0000 H       1  UNL1        0.0281
     15 H           6.1938   -2.0718    0.0000 H       1  UNL1        0.0281
     16 H           6.9827   -1.6610    0.0000 H       1  UNL1        0.0281
     17 H           3.3629   -2.3088    0.0000 H       1  UNL1        0.0357
     18 H           3.2103    0.3003    0.0000 H       1  UNL1        0.0357
     19 H           2.6010   -0.2359    0.0000 H       1  UNL1        0.0357
     20 H           4.1854   -2.2992    0.0000 H       1  UNL1        0.0357
     21 H           4.5489    2.1501    0.0000 H       1  UNL1        0.0391
     22 H           3.7020    2.3770    0.0000 H       1  UNL1        0.0391
     23 H           3.4750    1.5301    0.0000 H       1  UNL1        0.0391
@<TRIPOS>BOND
     1     1     9    2
     2     2     3    1
     3     2     4    1
     4     2    10    1
     5     3     5    1
     6     3     8    1
     7     3    12    1
     8     4     6    1
     9     4     7    1
    10     4    11    1
    11     5     6    1
    12     5    13    1
    13     5    14    1
    14     6    15    1
    15     6    16    1
    16     7     9    1
    17     7    17    1
    18     7    20    1
    19     8     9    1
    20     8    18    1
    21     8    19    1
    22    10    21    1
    23    10    22    1
    24    10    23    1
