@<TRIPOS>MOLECULE
IMPHY005080
 24 24 0 0 0
SMALL
GASTEIGER

@<TRIPOS>ATOM
      1 O           3.7320    0.5000    0.0000 O.3     1  UNL1       -0.4612
      2 O           2.0000    0.5000    0.0000 O.2     1  UNL1       -0.2450
      3 C           4.5981    2.0000    0.0000 C.3     1  UNL1       -0.0214
      4 C           3.7320    1.5000    0.0000 C.3     1  UNL1        0.0925
      5 C           4.5981    3.0000    0.0000 C.3     1  UNL1       -0.0622
      6 C           2.8660   -1.0000    0.0000 C.ar    1  UNL1        0.0590
      7 C           2.8660    0.0000    0.0000 C.2     1  UNL1        0.3392
      8 C           2.0000   -1.5000    0.0000 C.ar    1  UNL1       -0.0478
      9 C           3.7320   -1.5000    0.0000 C.ar    1  UNL1       -0.0478
     10 C           2.0000   -2.5000    0.0000 C.ar    1  UNL1       -0.0610
     11 C           3.7320   -2.5000    0.0000 C.ar    1  UNL1       -0.0610
     12 C           2.8660   -3.0000    0.0000 C.ar    1  UNL1       -0.0617
     13 H           4.8101    1.4174    0.0000 H       1  UNL1        0.0295
     14 H           5.2087    2.1077    0.0000 H       1  UNL1        0.0295
     15 H           3.5200    2.0826    0.0000 H       1  UNL1        0.0697
     16 H           3.1215    1.3923    0.0000 H       1  UNL1        0.0697
     17 H           5.2181    3.0000    0.0000 H       1  UNL1        0.0231
     18 H           4.5981    3.6200    0.0000 H       1  UNL1        0.0231
     19 H           3.9781    3.0000    0.0000 H       1  UNL1        0.0231
     20 H           1.4631   -1.1900    0.0000 H       1  UNL1        0.0626
     21 H           4.2690   -1.1900    0.0000 H       1  UNL1        0.0626
     22 H           1.4631   -2.8100    0.0000 H       1  UNL1        0.0618
     23 H           4.2690   -2.8100    0.0000 H       1  UNL1        0.0618
     24 H           2.8660   -3.6200    0.0000 H       1  UNL1        0.0618
@<TRIPOS>BOND
     1     1     4    1
     2     1     7    1
     3     2     7    2
     4     3     4    1
     5     3     5    1
     6     3    13    1
     7     3    14    1
     8     4    15    1
     9     4    16    1
    10     5    17    1
    11     5    18    1
    12     5    19    1
    13     6     7    1
    14     6     8   ar
    15     6     9   ar
    16     8    10   ar
    17     8    20    1
    18     9    11   ar
    19     9    21    1
    20    10    12   ar
    21    10    22    1
    22    11    12   ar
    23    11    23    1
    24    12    24    1
