@<TRIPOS>MOLECULE
IMPHY004607
 97 99 0 0 0
SMALL
GASTEIGER

@<TRIPOS>ATOM
      1 O           4.6783   -4.3849    0.0000 O.3     1  UNL1       -0.3578
      2 C           3.7320   -4.0801    0.0000 C.3     1  UNL1        0.0894
      3 C           2.8660   -2.5801    0.0000 C.3     1  UNL1       -0.0111
      4 C           3.7320   -3.0801    0.0000 C.2     1  UNL1       -0.0340
      5 C           2.8660   -4.5801    0.0000 C.3     1  UNL1       -0.0200
      6 C           2.0000   -3.0801    0.0000 C.3     1  UNL1       -0.0440
      7 C           2.0000   -4.0801    0.0000 C.3     1  UNL1       -0.0494
      8 C           4.6783   -2.7754    0.0000 C.2     1  UNL1       -0.0491
      9 C           5.2619   -3.5801    0.0000 C.3     1  UNL1        0.0994
     10 C           3.7320   -5.0801    0.0000 C.3     1  UNL1       -0.0319
     11 C           2.3660   -1.7141    0.0000 C.3     1  UNL1       -0.0560
     12 C           3.3660   -1.7141    0.0000 C.3     1  UNL1       -0.0560
     13 C           6.2619   -3.5801    0.0000 C.2     1  UNL1       -0.0404
     14 C           6.7619   -4.4462    0.0000 C.3     1  UNL1       -0.0408
     15 C           6.7619   -2.7141    0.0000 C.2     1  UNL1       -0.0600
     16 C          18.7619    2.4820    0.0000 C.3     1  UNL1       -0.0099
     17 C          19.7619    2.4820    0.0000 C.3     1  UNL1       -0.0436
     18 C          20.2619    3.3481    0.0000 C.3     1  UNL1       -0.0486
     19 C          18.2619    3.3481    0.0000 C.2     1  UNL1       -0.0427
     20 C          19.7619    4.2141    0.0000 C.3     1  UNL1       -0.0314
     21 C          18.7619    4.2141    0.0000 C.2     1  UNL1       -0.0689
     22 C          18.7619    1.4820    0.0000 C.3     1  UNL1       -0.0558
     23 C          17.8959    1.9820    0.0000 C.3     1  UNL1       -0.0558
     24 C           7.7619   -2.7141    0.0000 C.2     1  UNL1       -0.0615
     25 C          17.2619    3.3481    0.0000 C.2     1  UNL1       -0.0579
     26 C          18.2619    5.0801    0.0000 C.3     1  UNL1       -0.0432
     27 C           8.2619   -1.8481    0.0000 C.2     1  UNL1       -0.0588
     28 C          16.7619    2.4820    0.0000 C.2     1  UNL1       -0.0586
     29 C           9.2619   -1.8481    0.0000 C.2     1  UNL1       -0.0504
     30 C          15.7619    2.4820    0.0000 C.2     1  UNL1       -0.0504
     31 C           9.7619   -2.7141    0.0000 C.3     1  UNL1       -0.0397
     32 C           9.7619   -0.9821    0.0000 C.2     1  UNL1       -0.0588
     33 C          15.2619    3.3481    0.0000 C.3     1  UNL1       -0.0397
     34 C          15.2619    1.6160    0.0000 C.2     1  UNL1       -0.0588
     35 C          10.7619   -0.9821    0.0000 C.2     1  UNL1       -0.0615
     36 C          14.2619    1.6160    0.0000 C.2     1  UNL1       -0.0613
     37 C          11.2619   -0.1160    0.0000 C.2     1  UNL1       -0.0615
     38 C          13.7619    0.7500    0.0000 C.2     1  UNL1       -0.0588
     39 C          12.7619    0.7500    0.0000 C.2     1  UNL1       -0.0504
     40 C          12.2619   -0.1160    0.0000 C.2     1  UNL1       -0.0588
     41 C          12.2619    1.6160    0.0000 C.3     1  UNL1       -0.0397
     42 H           2.4675   -5.0551    0.0000 H       1  UNL1        0.0296
     43 H           3.2646   -5.0551    0.0000 H       1  UNL1        0.0296
     44 H           1.7880   -2.4975    0.0000 H       1  UNL1        0.0274
     45 H           1.3894   -3.1878    0.0000 H       1  UNL1        0.0274
     46 H           1.3894   -3.9725    0.0000 H       1  UNL1        0.0267
     47 H           1.7880   -4.6627    0.0000 H       1  UNL1        0.0267
     48 H           4.8709   -2.1861    0.0000 H       1  UNL1        0.0601
     49 H           5.6481   -4.3373    0.0000 H       1  UNL1        0.0688
     50 H           3.1120   -5.0801    0.0000 H       1  UNL1        0.0261
     51 H           3.7320   -5.7001    0.0000 H       1  UNL1        0.0261
     52 H           4.3520   -5.0801    0.0000 H       1  UNL1        0.0261
     53 H           3.9030   -2.0241    0.0000 H       1  UNL1        0.0238
     54 H           3.6760   -1.1772    0.0000 H       1  UNL1        0.0238
     55 H           2.8291   -1.4041    0.0000 H       1  UNL1        0.0238
     56 H           2.9030   -1.4041    0.0000 H       1  UNL1        0.0238
     57 H           2.0560   -1.1772    0.0000 H       1  UNL1        0.0238
     58 H           1.8291   -2.0241    0.0000 H       1  UNL1        0.0238
     59 H           6.2249   -4.7562    0.0000 H       1  UNL1        0.0275
     60 H           7.0719   -4.9831    0.0000 H       1  UNL1        0.0275
     61 H           7.2988   -4.1362    0.0000 H       1  UNL1        0.0275
     62 H           6.4519   -2.1772    0.0000 H       1  UNL1        0.0618
     63 H          19.6542    1.8715    0.0000 H       1  UNL1        0.0274
     64 H          20.3445    2.2700    0.0000 H       1  UNL1        0.0274
     65 H          20.7368    2.9496    0.0000 H       1  UNL1        0.0269
     66 H          20.7368    3.7466    0.0000 H       1  UNL1        0.0269
     67 H          20.3445    4.4262    0.0000 H       1  UNL1        0.0310
     68 H          19.6542    4.8247    0.0000 H       1  UNL1        0.0310
     69 H          18.1419    1.4820    0.0000 H       1  UNL1        0.0238
     70 H          17.5859    2.5190    0.0000 H       1  UNL1        0.0238
     71 H          17.3589    1.6720    0.0000 H       1  UNL1        0.0238
     72 H          18.2059    1.4451    0.0000 H       1  UNL1        0.0238
     73 H          18.7619    0.8621    0.0000 H       1  UNL1        0.0238
     74 H          19.3819    1.4820    0.0000 H       1  UNL1        0.0238
     75 H           8.0719   -3.2510    0.0000 H       1  UNL1        0.0618
     76 H          16.9519    3.8850    0.0000 H       1  UNL1        0.0621
     77 H          18.7988    5.3901    0.0000 H       1  UNL1        0.0275
     78 H          17.9519    5.6171    0.0000 H       1  UNL1        0.0275
     79 H          17.7249    4.7701    0.0000 H       1  UNL1        0.0275
     80 H           7.9519   -1.3111    0.0000 H       1  UNL1        0.0620
     81 H          17.0719    1.9451    0.0000 H       1  UNL1        0.0620
     82 H           9.2249   -3.0241    0.0000 H       1  UNL1        0.0278
     83 H          10.0719   -3.2510    0.0000 H       1  UNL1        0.0278
     84 H          10.2988   -2.4041    0.0000 H       1  UNL1        0.0278
     85 H           9.4519   -0.4451    0.0000 H       1  UNL1        0.0620
     86 H          15.7988    3.6581    0.0000 H       1  UNL1        0.0278
     87 H          14.9519    3.8850    0.0000 H       1  UNL1        0.0278
     88 H          14.7249    3.0381    0.0000 H       1  UNL1        0.0278
     89 H          15.5719    1.0791    0.0000 H       1  UNL1        0.0620
     90 H          11.0719   -1.5190    0.0000 H       1  UNL1        0.0618
     91 H          13.9519    2.1530    0.0000 H       1  UNL1        0.0618
     92 H          14.0719    0.2131    0.0000 H       1  UNL1        0.0620
     93 H          10.9519    0.4209    0.0000 H       1  UNL1        0.0618
     94 H          12.5719   -0.6530    0.0000 H       1  UNL1        0.0620
     95 H          12.7988    1.9260    0.0000 H       1  UNL1        0.0278
     96 H          11.9519    2.1530    0.0000 H       1  UNL1        0.0278
     97 H          11.7249    1.3060    0.0000 H       1  UNL1        0.0278
@<TRIPOS>BOND
     1     1     2    1
     2     1     9    1
     3     2     4    1
     4     2     5    1
     5     2    10    1
     6     3     4    1
     7     3     6    1
     8     3    11    1
     9     3    12    1
    10     4     8    2
    11     5     7    1
    12     5    42    1
    13     5    43    1
    14     6     7    1
    15     6    44    1
    16     6    45    1
    17     7    46    1
    18     7    47    1
    19     8     9    1
    20     8    48    1
    21     9    13    1
    22     9    49    1
    23    10    50    1
    24    10    51    1
    25    10    52    1
    26    11    56    1
    27    11    57    1
    28    11    58    1
    29    12    53    1
    30    12    54    1
    31    12    55    1
    32    13    14    1
    33    13    15    2
    34    14    59    1
    35    14    60    1
    36    14    61    1
    37    15    24    1
    38    15    62    1
    39    16    17    1
    40    16    19    1
    41    16    22    1
    42    16    23    1
    43    17    18    1
    44    17    63    1
    45    17    64    1
    46    18    20    1
    47    18    65    1
    48    18    66    1
    49    19    21    2
    50    19    25    1
    51    20    21    1
    52    20    67    1
    53    20    68    1
    54    21    26    1
    55    22    69    1
    56    22    73    1
    57    22    74    1
    58    23    70    1
    59    23    71    1
    60    23    72    1
    61    24    27    2
    62    24    75    1
    63    25    28    2
    64    25    76    1
    65    26    77    1
    66    26    78    1
    67    26    79    1
    68    27    29    1
    69    27    80    1
    70    28    30    1
    71    28    81    1
    72    29    31    1
    73    29    32    2
    74    30    33    1
    75    30    34    2
    76    31    82    1
    77    31    83    1
    78    31    84    1
    79    32    35    1
    80    32    85    1
    81    33    86    1
    82    33    87    1
    83    33    88    1
    84    34    36    1
    85    34    89    1
    86    35    37    2
    87    35    90    1
    88    36    38    2
    89    36    91    1
    90    37    40    1
    91    37    93    1
    92    38    39    1
    93    38    92    1
    94    39    40    2
    95    39    41    1
    96    40    94    1
    97    41    95    1
    98    41    96    1
    99    41    97    1
