@<TRIPOS>MOLECULE
IMPHY006719
 40 42 0 0 0
SMALL
GASTEIGER

@<TRIPOS>ATOM
      1 O           2.6081   -1.6765    0.0000 O.3     1  UNL1       -0.3882
      2 C           5.0230   -0.8508    0.0000 C.3     1  UNL1       -0.0232
      3 C           5.8495   -1.4146    0.0000 C.3     1  UNL1       -0.0280
      4 C           5.9240   -0.4169    0.0000 C.3     1  UNL1       -0.0314
      5 C           4.1220   -0.4169    0.0000 C.3     1  UNL1        0.0125
      6 C           6.1465    0.5580    0.0000 C.3     1  UNL1       -0.0457
      7 C           3.2673   -0.9246    0.0000 C.3     1  UNL1        0.0703
      8 C           3.8995    0.5580    0.0000 C.2     1  UNL1       -0.0644
      9 C           6.8467   -1.4893    0.0000 C.3     1  UNL1       -0.0593
     10 C           5.2861   -2.2408    0.0000 C.3     1  UNL1       -0.0593
     11 C           2.5193   -0.2699    0.0000 C.3     1  UNL1       -0.0200
     12 C           5.5230    1.3398    0.0000 C.3     1  UNL1       -0.0315
     13 C           2.9092    0.6446    0.0000 C.3     1  UNL1       -0.0285
     14 C           4.5230    1.3398    0.0000 C.2     1  UNL1       -0.0730
     15 C           3.7788   -1.7839    0.0000 C.3     1  UNL1       -0.0355
     16 C           4.0891    2.2408    0.0000 C.3     1  UNL1       -0.0435
     17 H           4.5979   -1.5869    0.0000 H       1  UNL1        0.0316
     18 H           6.7645   -0.5435    0.0000 H       1  UNL1        0.0309
     19 H           4.1591   -1.2661    0.0000 H       1  UNL1        0.0376
     20 H           6.7051    0.2890    0.0000 H       1  UNL1        0.0271
     21 H           6.5330    1.0428    0.0000 H       1  UNL1        0.0271
     22 H           6.8003   -2.1076    0.0000 H       1  UNL1        0.0235
     23 H           7.4649   -1.5356    0.0000 H       1  UNL1        0.0235
     24 H           6.8930   -0.8710    0.0000 H       1  UNL1        0.0235
     25 H           4.7739   -1.8916    0.0000 H       1  UNL1        0.0235
     26 H           4.9369   -2.7531    0.0000 H       1  UNL1        0.0235
     27 H           5.7984   -2.5901    0.0000 H       1  UNL1        0.0235
     28 H           1.9777    0.0319    0.0000 H       1  UNL1        0.0296
     29 H           2.1623   -0.7768    0.0000 H       1  UNL1        0.0296
     30 H           6.0816    1.6089    0.0000 H       1  UNL1        0.0310
     31 H           5.3850    1.9443    0.0000 H       1  UNL1        0.0310
     32 H           3.0278    1.2531    0.0000 H       1  UNL1        0.0311
     33 H           2.3165    0.8264    0.0000 H       1  UNL1        0.0311
     34 H           3.2460   -2.1010    0.0000 H       1  UNL1        0.0257
     35 H           4.0958   -2.3167    0.0000 H       1  UNL1        0.0257
     36 H           4.3116   -1.4668    0.0000 H       1  UNL1        0.0257
     37 H           2.0000   -1.5556    0.0000 H       1  UNL1        0.2102
     38 H           4.6477    2.5098    0.0000 H       1  UNL1        0.0274
     39 H           3.8201    2.7994    0.0000 H       1  UNL1        0.0274
     40 H           3.5305    1.9718    0.0000 H       1  UNL1        0.0274
@<TRIPOS>BOND
     1     7     1    1
     2     1    37    1
     3     2     3    1
     4     2     4    1
     5     2     5    1
     6     2    17    1
     7     3     4    1
     8     3     9    1
     9     3    10    1
    10     4     6    1
    11     4    18    1
    12     5     7    1
    13     5     8    1
    14     5    19    1
    15     6    12    1
    16     6    20    1
    17     6    21    1
    18     7    11    1
    19     7    15    1
    20     8    13    1
    21     8    14    2
    22     9    22    1
    23     9    23    1
    24     9    24    1
    25    10    25    1
    26    10    26    1
    27    10    27    1
    28    11    13    1
    29    11    28    1
    30    11    29    1
    31    12    14    1
    32    12    30    1
    33    12    31    1
    34    13    32    1
    35    13    33    1
    36    14    16    1
    37    15    34    1
    38    15    35    1
    39    15    36    1
    40    16    38    1
    41    16    39    1
    42    16    40    1
