@<TRIPOS>MOLECULE
IMPHY012329
 18 19 0 0 0
SMALL
GASTEIGER

@<TRIPOS>ATOM
      1 O           4.6260   -0.3970    0.0000 O.2     1  UNL1       -0.4184
      2 O           2.8660   -1.3623    0.0000 O.3     1  UNL1       -0.5033
      3 O           6.3961   -0.3865    0.0000 O.2     1  UNL1       -0.2452
      4 C           3.7320    1.1377    0.0000 C.ar    1  UNL1        0.0213
      5 C           3.7320    0.1377    0.0000 C.ar    1  UNL1        0.1802
      6 C           2.8660   -0.3623    0.0000 C.ar    1  UNL1        0.1598
      7 C           2.8660    1.6377    0.0000 C.ar    1  UNL1       -0.0508
      8 C           4.6260    1.6723    0.0000 C.ar    1  UNL1       -0.0442
      9 C           2.0000    0.1377    0.0000 C.ar    1  UNL1       -0.0165
     10 C           2.0000    1.1377    0.0000 C.ar    1  UNL1       -0.0575
     11 C           5.5321    1.1585    0.0000 C.ar    1  UNL1        0.0236
     12 C           5.5321    0.1169    0.0000 C.ar    1  UNL1        0.3373
     13 H           2.8660    2.2577    0.0000 H       1  UNL1        0.0625
     14 H           4.6188    2.2923    0.0000 H       1  UNL1        0.0627
     15 H           1.4631   -0.1723    0.0000 H       1  UNL1        0.0655
     16 H           1.4631    1.4477    0.0000 H       1  UNL1        0.0619
     17 H           6.0678    1.4706    0.0000 H       1  UNL1        0.0689
     18 H           2.3291   -1.6723    0.0000 H       1  UNL1        0.2923
@<TRIPOS>BOND
     1     1     5   ar
     2     1    12   ar
     3     2     6    1
     4     2    18    1
     5     3    12    2
     6     4     5   ar
     7     4     7   ar
     8     4     8   ar
     9     5     6   ar
    10     6     9   ar
    11     7    10   ar
    12     7    13    1
    13     8    11   ar
    14     8    14    1
    15     9    10   ar
    16     9    15    1
    17    10    16    1
    18    11    12   ar
    19    11    17    1
