@<TRIPOS>MOLECULE
IMPHY005091
 22 23 0 0 0
SMALL
GASTEIGER

@<TRIPOS>ATOM
      1 O           2.8660   -1.0000    0.0000 O.2     1  UNL1       -0.4911
      2 O           4.5981   -2.0000    0.0000 O.2     1  UNL1       -0.2834
      3 O           4.5981    2.0000    0.0000 O.2     1  UNL1       -0.2871
      4 C           5.4641   -0.5000    0.0000 C.ar    1  UNL1        0.0361
      5 C           5.4641    0.5000    0.0000 C.ar    1  UNL1        0.0327
      6 C           4.5981   -1.0000    0.0000 C.2     1  UNL1        0.2281
      7 C           4.5981    1.0000    0.0000 C.2     1  UNL1        0.1903
      8 C           3.7320   -0.5000    0.0000 C.2     1  UNL1        0.1708
      9 C           6.3580   -1.0347    0.0000 C.ar    1  UNL1       -0.0501
     10 C           6.3580    1.0347    0.0000 C.ar    1  UNL1       -0.0502
     11 C           3.7320    0.5000    0.0000 C.2     1  UNL1        0.0312
     12 C           7.2641   -0.5208    0.0000 C.ar    1  UNL1       -0.0610
     13 C           7.2641    0.5208    0.0000 C.ar    1  UNL1       -0.0610
     14 C           2.0000   -0.5000    0.0000 C.3     1  UNL1        0.0790
     15 H           6.3509   -1.6546    0.0000 H       1  UNL1        0.0625
     16 H           6.3509    1.6546    0.0000 H       1  UNL1        0.0625
     17 H           3.1951    0.8100    0.0000 H       1  UNL1        0.0694
     18 H           7.7998   -0.8329    0.0000 H       1  UNL1        0.0618
     19 H           7.7998    0.8329    0.0000 H       1  UNL1        0.0618
     20 H           2.3100    0.0369    0.0000 H       1  UNL1        0.0660
     21 H           1.4631   -0.1900    0.0000 H       1  UNL1        0.0660
     22 H           1.6900   -1.0369    0.0000 H       1  UNL1        0.0660
@<TRIPOS>BOND
     1     1     8    1
     2     1    14    1
     3     2     6    2
     4     3     7    2
     5     4     5   ar
     6     4     6    1
     7     4     9   ar
     8     5     7    1
     9     5    10   ar
    10     6     8    1
    11     7    11    1
    12     8    11    2
    13     9    12   ar
    14     9    15    1
    15    10    13   ar
    16    10    16    1
    17    11    17    1
    18    12    13   ar
    19    12    18    1
    20    13    19    1
    21    14    20    1
    22    14    21    1
    23    14    22    1
