@<TRIPOS>MOLECULE
IMPHY017940
 16 18 0 0 0
SMALL
GASTEIGER

@<TRIPOS>ATOM
      1 O           4.0037    2.1353    0.0000 O.3     1  UNL1       -0.2215
      2 C           4.5037   -1.0553    0.0000 C.3     1  UNL1        0.0038
      3 C           5.3302   -1.6191    0.0000 C.3     1  UNL1        0.0003
      4 C           5.4047   -0.6214    0.0000 C.3     1  UNL1        0.0004
      5 C           3.6027   -0.6214    0.0000 C.3     1  UNL1        0.0206
      6 C           5.6272    0.3535    0.0000 C.3     1  UNL1        0.0029
      7 C           2.7480   -1.1291    0.0000 C.3     1  UNL1        0.0081
      8 C           3.3802    0.3535    0.0000 C.2     1  UNL1       -0.0217
      9 C           4.7668   -2.4453    0.0000 C.3     1  UNL1        0.0000
     10 C           6.3274   -1.6938    0.0000 C.3     1  UNL1        0.0000
     11 C           4.0037    1.1353    0.0000 C.3     1  UNL1        0.1415
     12 C           5.0037    1.1353    0.0000 C.3     1  UNL1        0.0343
     13 C           2.0000   -0.4744    0.0000 C.3     1  UNL1        0.0258
     14 C           2.3899    0.4400    0.0000 C.2     1  UNL1       -0.0323
     15 C           2.6567   -2.1249    0.0000 C.3     1  UNL1        0.0007
     16 C           3.2219    1.7588    0.0000 C.3     1  UNL1        0.0372
@<TRIPOS>BOND
     1     1    11    1
     2     2     3    1
     3     2     4    1
     4     2     5    1
     5     3     4    1
     6     3     9    1
     7     3    10    1
     8     4     6    1
     9     5     7    1
    10     5     8    1
    11     6    12    1
    12     7    13    1
    13     7    15    1
    14     8    11    1
    15     8    14    2
    16    11    12    1
    17    11    16    1
    18    13    14    1
