@<TRIPOS>MOLECULE
IMPHY014057
 24 25 0 0 0
SMALL
GASTEIGER

@<TRIPOS>ATOM
      1 O           6.0290   -1.5346    0.0000 O.2     1  UNL1       -0.4596
      2 O           2.5369   -1.5000    0.0000 O.3     1  UNL1       -0.5066
      3 O           6.0174    1.5346    0.0000 O.2     1  UNL1       -0.2870
      4 C           5.1350    0.0000    0.0000 C.ar    1  UNL1        0.0671
      5 C           4.2690    0.5000    0.0000 C.ar    1  UNL1       -0.0327
      6 C           5.1350   -1.0000    0.0000 C.ar    1  UNL1        0.1424
      7 C           6.0290    0.5347    0.0000 C.ar    1  UNL1        0.1930
      8 C           3.4030    0.0000    0.0000 C.ar    1  UNL1       -0.0164
      9 C           4.2690   -1.5000    0.0000 C.ar    1  UNL1        0.0229
     10 C           6.9350   -1.0208    0.0000 C.ar    1  UNL1        0.1062
     11 C           3.4030   -1.0000    0.0000 C.ar    1  UNL1        0.1206
     12 C           6.9350    0.0208    0.0000 C.ar    1  UNL1        0.0236
     13 C           4.2690    1.5000    0.0000 C.3     1  UNL1       -0.0388
     14 C           7.7991   -1.5241    0.0000 C.3     1  UNL1       -0.0062
     15 H           2.8660    0.3100    0.0000 H       1  UNL1        0.0657
     16 H           4.2690   -2.1200    0.0000 H       1  UNL1        0.0691
     17 H           7.4708    0.3329    0.0000 H       1  UNL1        0.0689
     18 H           4.8890    1.5000    0.0000 H       1  UNL1        0.0278
     19 H           4.2690    2.1200    0.0000 H       1  UNL1        0.0278
     20 H           3.6490    1.5000    0.0000 H       1  UNL1        0.0278
     21 H           7.4870   -2.0598    0.0000 H       1  UNL1        0.0308
     22 H           8.3348   -1.8362    0.0000 H       1  UNL1        0.0308
     23 H           8.1112   -0.9884    0.0000 H       1  UNL1        0.0308
     24 H           2.0000   -1.1900    0.0000 H       1  UNL1        0.2921
@<TRIPOS>BOND
     1     1     6   ar
     2     1    10   ar
     3     2    11    1
     4     2    24    1
     5     3     7    2
     6     4     5   ar
     7     4     6   ar
     8     4     7   ar
     9     5     8   ar
    10     5    13    1
    11     6     9   ar
    12     7    12   ar
    13     8    11   ar
    14     8    15    1
    15     9    11   ar
    16     9    16    1
    17    10    12   ar
    18    10    14    1
    19    12    17    1
    20    13    18    1
    21    13    19    1
    22    13    20    1
    23    14    21    1
    24    14    22    1
    25    14    23    1
