@<TRIPOS>MOLECULE
IMPHY009911
 136 144 0 0 0
SMALL
GASTEIGER

@<TRIPOS>ATOM
      1 O           9.1562    5.5403    0.0000 O.3     1  UNL1       -0.3448
      2 O           7.3837    6.4351    0.0000 O.3     1  UNL1       -0.3480
      3 O           6.0303    3.4864    0.0000 O.2     1  UNL1       -0.2968
      4 O           7.7331   -2.7038    0.0000 O.3     1  UNL1       -0.3454
      5 O           6.0010   -2.7038    0.0000 O.3     1  UNL1       -0.3405
      6 O           7.7331   -4.7038    0.0000 O.3     1  UNL1       -0.3377
      7 O           6.0010   -5.7038    0.0000 O.3     1  UNL1       -0.3400
      8 O           4.2690   -4.7038    0.0000 O.3     1  UNL1       -0.3865
      9 O           8.5991   -3.2038    0.0000 O.3     1  UNL1       -0.3405
     10 O           4.2690   -1.7038    0.0000 O.3     1  UNL1       -0.3924
     11 O           4.2690   -5.7038    0.0000 O.3     1  UNL1       -0.3405
     12 O           9.4651   -5.7038    0.0000 O.3     1  UNL1       -0.3841
     13 O           6.0010   -7.7038    0.0000 O.3     1  UNL1       -0.3841
     14 O          11.1972   -4.7038    0.0000 O.3     1  UNL1       -0.3864
     15 O          11.1972   -2.7038    0.0000 O.3     1  UNL1       -0.3865
     16 O           4.2690   -8.7038    0.0000 O.3     1  UNL1       -0.3864
     17 O           2.5369   -7.7038    0.0000 O.3     1  UNL1       -0.3865
     18 O          10.3312   -1.2038    0.0000 O.3     1  UNL1       -0.3924
     19 O           2.5369   -4.7038    0.0000 O.3     1  UNL1       -0.3924
     20 C           8.6303    2.9965    0.0000 C.3     1  UNL1       -0.0231
     21 C           7.7624    3.4931    0.0000 C.3     1  UNL1        0.0349
     22 C           8.6342    1.9965    0.0000 C.3     1  UNL1       -0.0335
     23 C           7.9678    4.4657    0.0000 C.3     1  UNL1        0.0052
     24 C           7.7701    1.4931    0.0000 C.3     1  UNL1       -0.0256
     25 C           7.7580    0.4516    0.0000 C.3     1  UNL1       -0.0256
     26 C           8.9561    4.5726    0.0000 C.3     1  UNL1        0.0664
     27 C           9.3647    3.6664    0.0000 C.3     1  UNL1       -0.0222
     28 C           7.5655    5.3683    0.0000 C.3     1  UNL1        0.0164
     29 C           8.6581   -0.0727    0.0000 C.3     1  UNL1       -0.0330
     30 C           6.9021    1.9898    0.0000 C.3     1  UNL1        0.0100
     31 C           9.5461    1.4931    0.0000 C.3     1  UNL1       -0.0494
     32 C           6.8983    2.9898    0.0000 C.2     1  UNL1        0.1401
     33 C           8.2985    6.0311    0.0000 C.3     1  UNL1        0.1732
     34 C           9.5581    0.4516    0.0000 C.3     1  UNL1       -0.0494
     35 C           6.8081   -0.0727    0.0000 C.3     1  UNL1       -0.0448
     36 C           6.8944    3.9898    0.0000 C.3     1  UNL1       -0.0522
     37 C           8.6706   -1.1576    0.0000 C.3     1  UNL1       -0.0232
     38 C           6.8939    0.9549    0.0000 C.3     1  UNL1       -0.0590
     39 C           6.7956   -1.1576    0.0000 C.3     1  UNL1       -0.0260
     40 C           7.7331   -1.7038    0.0000 C.3     1  UNL1        0.0621
     41 C           6.5871    5.5750    0.0000 C.3     1  UNL1       -0.0572
     42 C           9.1057    6.6213    0.0000 C.3     1  UNL1        0.0020
     43 C           8.9982    7.6155    0.0000 C.3     1  UNL1       -0.0435
     44 C           8.0835    8.0195    0.0000 C.3     1  UNL1       -0.0201
     45 C           7.2762    7.4293    0.0000 C.3     1  UNL1        0.0535
     46 C           6.8671   -3.2038    0.0000 C.3     1  UNL1        0.1886
     47 C           7.9760    9.0138    0.0000 C.3     1  UNL1       -0.0603
     48 C           6.8671   -4.2038    0.0000 C.3     1  UNL1        0.1410
     49 C           6.0010   -4.7038    0.0000 C.3     1  UNL1        0.1209
     50 C           5.1350   -3.2038    0.0000 C.3     1  UNL1        0.1130
     51 C           5.1350   -4.2038    0.0000 C.3     1  UNL1        0.1123
     52 C           4.2690   -2.7038    0.0000 C.3     1  UNL1        0.0730
     53 C           8.5991   -4.2038    0.0000 C.3     1  UNL1        0.1885
     54 C           5.1350   -6.2038    0.0000 C.3     1  UNL1        0.1884
     55 C           9.4651   -4.7038    0.0000 C.3     1  UNL1        0.1341
     56 C           5.1350   -7.2038    0.0000 C.3     1  UNL1        0.1341
     57 C          10.3312   -4.2038    0.0000 C.3     1  UNL1        0.1141
     58 C           9.4651   -2.7038    0.0000 C.3     1  UNL1        0.1130
     59 C          10.3312   -3.2038    0.0000 C.3     1  UNL1        0.1119
     60 C           4.2690   -7.7038    0.0000 C.3     1  UNL1        0.1141
     61 C           3.4030   -6.2038    0.0000 C.3     1  UNL1        0.1130
     62 C           3.4030   -7.2038    0.0000 C.3     1  UNL1        0.1119
     63 C           9.4651   -1.7038    0.0000 C.3     1  UNL1        0.0730
     64 C           2.5369   -5.7038    0.0000 C.3     1  UNL1        0.0730
     65 H           9.4086    2.6548    0.0000 H       1  UNL1        0.0314
     66 H           9.3653    2.4300    0.0000 H       1  UNL1        0.0307
     67 H           7.1225    4.3762    0.0000 H       1  UNL1        0.0339
     68 H           8.5045    1.0653    0.0000 H       1  UNL1        0.0313
     69 H           9.8010    4.6658    0.0000 H       1  UNL1        0.0600
     70 H           9.7321    3.1670    0.0000 H       1  UNL1        0.0293
     71 H           9.9000    3.9792    0.0000 H       1  UNL1        0.0293
     72 H           7.4040    5.9669    0.0000 H       1  UNL1        0.0354
     73 H           9.3974   -0.4920    0.0000 H       1  UNL1        0.0307
     74 H           6.2911    2.0951    0.0000 H       1  UNL1        0.0345
     75 H           6.6923    1.4064    0.0000 H       1  UNL1        0.0345
     76 H          10.1581    1.3941    0.0000 H       1  UNL1        0.0268
     77 H           9.7484    2.0792    0.0000 H       1  UNL1        0.0268
     78 H           9.7739   -0.1297    0.0000 H       1  UNL1        0.0268
     79 H          10.1677    0.5647    0.0000 H       1  UNL1        0.0268
     80 H           6.6058    0.5134    0.0000 H       1  UNL1        0.0271
     81 H           6.1961   -0.1717    0.0000 H       1  UNL1        0.0271
     82 H           7.2023    4.5279    0.0000 H       1  UNL1        0.0239
     83 H           6.3563    4.2977    0.0000 H       1  UNL1        0.0239
     84 H           6.5865    3.4517    0.0000 H       1  UNL1        0.0239
     85 H           8.8864   -1.7389    0.0000 H       1  UNL1        0.0293
     86 H           9.2802   -1.0445    0.0000 H       1  UNL1        0.0293
     87 H           7.2060    1.4906    0.0000 H       1  UNL1        0.0235
     88 H           6.3582    1.2670    0.0000 H       1  UNL1        0.0235
     89 H           6.5818    0.4192    0.0000 H       1  UNL1        0.0235
     90 H           6.1860   -1.0445    0.0000 H       1  UNL1        0.0290
     91 H           6.5798   -1.7389    0.0000 H       1  UNL1        0.0290
     92 H           8.2706   -2.0127    0.0000 H       1  UNL1        0.0597
     93 H           6.7152    6.1816    0.0000 H       1  UNL1        0.0234
     94 H           5.9805    5.7032    0.0000 H       1  UNL1        0.0234
     95 H           6.4590    4.9684    0.0000 H       1  UNL1        0.0234
     96 H           9.3792    6.0649    0.0000 H       1  UNL1        0.0317
     97 H           9.7012    6.7940    0.0000 H       1  UNL1        0.0317
     98 H           9.6168    7.5741    0.0000 H       1  UNL1        0.0270
     99 H           9.1464    8.2176    0.0000 H       1  UNL1        0.0270
    100 H           8.7696    8.5212    0.0000 H       1  UNL1        0.0320
    101 H           7.0028    7.9858    0.0000 H       1  UNL1        0.0563
    102 H           6.6808    7.2567    0.0000 H       1  UNL1        0.0563
    103 H           7.4040   -3.5138    0.0000 H       1  UNL1        0.0938
    104 H           8.5924    9.0804    0.0000 H       1  UNL1        0.0233
    105 H           7.9093    9.6302    0.0000 H       1  UNL1        0.0233
    106 H           7.3596    8.9471    0.0000 H       1  UNL1        0.0233
    107 H           6.8671   -4.8238    0.0000 H       1  UNL1        0.0675
    108 H           5.4641   -5.0138    0.0000 H       1  UNL1        0.0651
    109 H           5.1350   -2.5838    0.0000 H       1  UNL1        0.0647
    110 H           4.5981   -3.8938    0.0000 H       1  UNL1        0.0647
    111 H           3.6584   -2.5961    0.0000 H       1  UNL1        0.0584
    112 H           4.0569   -3.2864    0.0000 H       1  UNL1        0.0584
    113 H           8.5991   -4.8238    0.0000 H       1  UNL1        0.0938
    114 H           3.7320   -4.3938    0.0000 H       1  UNL1        0.2100
    115 H           5.1350   -5.5838    0.0000 H       1  UNL1        0.0938
    116 H          10.0021   -5.0138    0.0000 H       1  UNL1        0.0671
    117 H           5.1350   -7.8238    0.0000 H       1  UNL1        0.0671
    118 H           3.7320   -1.3938    0.0000 H       1  UNL1        0.2095
    119 H          10.8681   -3.8938    0.0000 H       1  UNL1        0.0648
    120 H           8.9282   -2.3938    0.0000 H       1  UNL1        0.0647
    121 H          10.3312   -2.5838    0.0000 H       1  UNL1        0.0647
    122 H           3.7320   -8.0138    0.0000 H       1  UNL1        0.0648
    123 H           3.4030   -5.5838    0.0000 H       1  UNL1        0.0647
    124 H           2.8660   -6.8938    0.0000 H       1  UNL1        0.0647
    125 H          10.0021   -6.0138    0.0000 H       1  UNL1        0.2101
    126 H           9.2531   -1.1211    0.0000 H       1  UNL1        0.0584
    127 H           8.8546   -1.8114    0.0000 H       1  UNL1        0.0584
    128 H           6.0010   -8.3238    0.0000 H       1  UNL1        0.2101
    129 H          11.7341   -4.3938    0.0000 H       1  UNL1        0.2100
    130 H           1.9264   -5.5961    0.0000 H       1  UNL1        0.0584
    131 H           2.3249   -6.2864    0.0000 H       1  UNL1        0.0584
    132 H          11.1972   -2.0838    0.0000 H       1  UNL1        0.2100
    133 H           3.7320   -9.0138    0.0000 H       1  UNL1        0.2100
    134 H           2.0000   -7.3938    0.0000 H       1  UNL1        0.2100
    135 H          10.3312   -0.5837    0.0000 H       1  UNL1        0.2095
    136 H           2.0000   -4.3938    0.0000 H       1  UNL1        0.2095
@<TRIPOS>BOND
     1     1    26    1
     2     1    33    1
     3     2    33    1
     4     2    45    1
     5     3    32    2
     6    40     4    1
     7    46     4    1
     8     5    46    1
     9     5    50    1
    10    48     6    1
    11    53     6    1
    12    49     7    1
    13    54     7    1
    14    51     8    1
    15     8   114    1
    16     9    53    1
    17     9    58    1
    18    10    52    1
    19    10   118    1
    20    11    54    1
    21    11    61    1
    22    55    12    1
    23    12   125    1
    24    56    13    1
    25    13   128    1
    26    57    14    1
    27    14   129    1
    28    59    15    1
    29    15   132    1
    30    60    16    1
    31    16   133    1
    32    62    17    1
    33    17   134    1
    34    18    63    1
    35    18   135    1
    36    19    64    1
    37    19   136    1
    38    20    21    1
    39    20    22    1
    40    20    27    1
    41    20    65    1
    42    21    23    1
    43    21    32    1
    44    21    36    1
    45    22    24    1
    46    22    31    1
    47    22    66    1
    48    23    26    1
    49    23    28    1
    50    23    67    1
    51    24    25    1
    52    24    30    1
    53    24    68    1
    54    25    29    1
    55    25    35    1
    56    25    38    1
    57    26    27    1
    58    26    69    1
    59    27    70    1
    60    27    71    1
    61    28    33    1
    62    28    41    1
    63    28    72    1
    64    29    34    1
    65    29    37    1
    66    29    73    1
    67    30    32    1
    68    30    74    1
    69    30    75    1
    70    31    34    1
    71    31    76    1
    72    31    77    1
    73    33    42    1
    74    34    78    1
    75    34    79    1
    76    35    39    1
    77    35    80    1
    78    35    81    1
    79    36    82    1
    80    36    83    1
    81    36    84    1
    82    37    40    1
    83    37    85    1
    84    37    86    1
    85    38    87    1
    86    38    88    1
    87    38    89    1
    88    39    40    1
    89    39    90    1
    90    39    91    1
    91    40    92    1
    92    41    93    1
    93    41    94    1
    94    41    95    1
    95    42    43    1
    96    42    96    1
    97    42    97    1
    98    43    44    1
    99    43    98    1
   100    43    99    1
   101    44    45    1
   102    44    47    1
   103    44   100    1
   104    45   101    1
   105    45   102    1
   106    46    48    1
   107    46   103    1
   108    47   104    1
   109    47   105    1
   110    47   106    1
   111    48    49    1
   112    48   107    1
   113    49    51    1
   114    49   108    1
   115    50    51    1
   116    50    52    1
   117    50   109    1
   118    51   110    1
   119    52   111    1
   120    52   112    1
   121    53    55    1
   122    53   113    1
   123    54    56    1
   124    54   115    1
   125    55    57    1
   126    55   116    1
   127    56    60    1
   128    56   117    1
   129    57    59    1
   130    57   119    1
   131    58    59    1
   132    58    63    1
   133    58   120    1
   134    59   121    1
   135    60    62    1
   136    60   122    1
   137    61    62    1
   138    61    64    1
   139    61   123    1
   140    62   124    1
   141    63   126    1
   142    63   127    1
   143    64   130    1
   144    64   131    1
