@<TRIPOS>MOLECULE
IMPHY010945
 80 84 0 0 0
SMALL
GASTEIGER

@<TRIPOS>ATOM
      1 C           6.5251    1.2172    0.0000 C.3     1  UNL1       -0.0231
      2 C           6.5251    0.2171    0.0000 C.3     1  UNL1       -0.0231
      3 C           7.4191    1.7518    0.0000 C.3     1  UNL1       -0.0294
      4 C           5.6591   -0.2829    0.0000 C.3     1  UNL1       -0.0294
      5 C           4.7931    0.2171    0.0000 C.3     1  UNL1       -0.0251
      6 C           8.3252    1.2380    0.0000 C.3     1  UNL1       -0.0256
      7 C           5.6591    1.7172    0.0000 C.3     1  UNL1       -0.0463
      8 C           7.4191   -0.3175    0.0000 C.3     1  UNL1       -0.0463
      9 C           3.8831   -0.2897    0.0000 C.3     1  UNL1       -0.0260
     10 C           4.7931    1.2172    0.0000 C.3     1  UNL1       -0.0466
     11 C           8.3252    0.1963    0.0000 C.3     1  UNL1       -0.0466
     12 C           9.0875    1.9387    0.0000 C.3     1  UNL1       -0.0330
     13 C           7.6292    2.7657    0.0000 C.3     1  UNL1       -0.0489
     14 C           5.6752   -1.3244    0.0000 C.3     1  UNL1       -0.0484
     15 C           3.8751   -1.3313    0.0000 C.3     1  UNL1       -0.0080
     16 C           8.6582    2.8810    0.0000 C.3     1  UNL1       -0.0492
     17 C           6.5251    2.2172    0.0000 C.3     1  UNL1       -0.0588
     18 C           6.5251   -0.7829    0.0000 C.3     1  UNL1       -0.0588
     19 C           4.7771   -1.8521    0.0000 C.3     1  UNL1       -0.0434
     20 C           3.9271    0.7171    0.0000 C.3     1  UNL1       -0.0590
     21 C           9.1950    0.7447    0.0000 C.3     1  UNL1       -0.0590
     22 C           2.9562    0.2744    0.0000 C.3     1  UNL1       -0.0455
     23 C          10.0675    1.7400    0.0000 C.3     1  UNL1       -0.0434
     24 C           2.9396   -1.8810    0.0000 C.2     1  UNL1       -0.0704
     25 C           3.8674   -2.3313    0.0000 C.3     1  UNL1       -0.0556
     26 C           2.0084   -0.2536    0.0000 C.3     1  UNL1       -0.0342
     27 C           2.0000   -1.3385    0.0000 C.2     1  UNL1       -0.0845
     28 C          10.7296    2.4895    0.0000 C.3     1  UNL1       -0.0624
     29 C          10.3855    0.7920    0.0000 C.3     1  UNL1       -0.0624
     30 C           2.9435   -2.8810    0.0000 C.3     1  UNL1       -0.0433
     31 H           7.9838    2.0076    0.0000 H       1  UNL1        0.0312
     32 H           6.1984   -0.5887    0.0000 H       1  UNL1        0.0312
     33 H           6.0576    2.1921    0.0000 H       1  UNL1        0.0271
     34 H           5.2606    2.1921    0.0000 H       1  UNL1        0.0271
     35 H           7.0145   -0.7873    0.0000 H       1  UNL1        0.0271
     36 H           7.8127   -0.7965    0.0000 H       1  UNL1        0.0271
     37 H           4.4164   -0.6059    0.0000 H       1  UNL1        0.0315
     38 H           4.5810    1.7998    0.0000 H       1  UNL1        0.0271
     39 H           4.1825    1.1095    0.0000 H       1  UNL1        0.0271
     40 H           8.5342   -0.3874    0.0000 H       1  UNL1        0.0271
     41 H           8.9360    0.3024    0.0000 H       1  UNL1        0.0271
     42 H           9.4733    2.4240    0.0000 H       1  UNL1        0.0309
     43 H           7.6253    3.3857    0.0000 H       1  UNL1        0.0268
     44 H           7.0122    2.8270    0.0000 H       1  UNL1        0.0268
     45 H           5.8932   -1.9048    0.0000 H       1  UNL1        0.0269
     46 H           6.2843   -1.2089    0.0000 H       1  UNL1        0.0269
     47 H           9.2463    3.0773    0.0000 H       1  UNL1        0.0268
     48 H           8.5248    3.4865    0.0000 H       1  UNL1        0.0268
     49 H           7.1451    2.2172    0.0000 H       1  UNL1        0.0235
     50 H           6.5251    2.8372    0.0000 H       1  UNL1        0.0235
     51 H           5.9051    2.2172    0.0000 H       1  UNL1        0.0235
     52 H           5.9051   -0.7829    0.0000 H       1  UNL1        0.0235
     53 H           6.5251   -1.4028    0.0000 H       1  UNL1        0.0235
     54 H           7.1451   -0.7829    0.0000 H       1  UNL1        0.0235
     55 H           4.3798   -2.3281    0.0000 H       1  UNL1        0.0274
     56 H           5.1781   -2.3250    0.0000 H       1  UNL1        0.0274
     57 H           4.2371    1.2541    0.0000 H       1  UNL1        0.0235
     58 H           3.3901    1.0272    0.0000 H       1  UNL1        0.0235
     59 H           3.6171    0.1802    0.0000 H       1  UNL1        0.0235
     60 H           8.8892    0.2053    0.0000 H       1  UNL1        0.0235
     61 H           9.7343    0.4388    0.0000 H       1  UNL1        0.0235
     62 H           9.5008    1.2840    0.0000 H       1  UNL1        0.0235
     63 H           3.3645    0.7410    0.0000 H       1  UNL1        0.0271
     64 H           2.5663    0.7564    0.0000 H       1  UNL1        0.0271
     65 H          10.6752    1.6169    0.0000 H       1  UNL1        0.0298
     66 H           3.2474   -2.3265    0.0000 H       1  UNL1        0.0238
     67 H           3.8626   -2.9512    0.0000 H       1  UNL1        0.0238
     68 H           4.4873   -2.3360    0.0000 H       1  UNL1        0.0238
     69 H           1.8038    0.3317    0.0000 H       1  UNL1        0.0307
     70 H           1.3967   -0.3549    0.0000 H       1  UNL1        0.0307
     71 H           1.4619   -1.6464    0.0000 H       1  UNL1        0.0572
     72 H          11.1943    2.0790    0.0000 H       1  UNL1        0.0232
     73 H          11.1401    2.9541    0.0000 H       1  UNL1        0.0232
     74 H          10.2650    2.9000    0.0000 H       1  UNL1        0.0232
     75 H           9.7977    0.5948    0.0000 H       1  UNL1        0.0232
     76 H          10.5827    0.2041    0.0000 H       1  UNL1        0.0232
     77 H          10.9733    0.9891    0.0000 H       1  UNL1        0.0232
     78 H           2.3235   -2.8834    0.0000 H       1  UNL1        0.0275
     79 H           2.9459   -3.5010    0.0000 H       1  UNL1        0.0275
     80 H           3.5635   -2.8786    0.0000 H       1  UNL1        0.0275
@<TRIPOS>BOND
     1     1     2    1
     2     1     3    1
     3     1     7    1
     4     1    17    1
     5     2     4    1
     6     2     8    1
     7     2    18    1
     8     3     6    1
     9     3    13    1
    10     3    31    1
    11     4     5    1
    12     4    14    1
    13     4    32    1
    14     5     9    1
    15     5    10    1
    16     5    20    1
    17     6    11    1
    18     6    12    1
    19     6    21    1
    20     7    10    1
    21     7    33    1
    22     7    34    1
    23     8    11    1
    24     8    35    1
    25     8    36    1
    26     9    15    1
    27     9    22    1
    28     9    37    1
    29    10    38    1
    30    10    39    1
    31    11    40    1
    32    11    41    1
    33    12    16    1
    34    12    23    1
    35    12    42    1
    36    13    16    1
    37    13    43    1
    38    13    44    1
    39    14    19    1
    40    14    45    1
    41    14    46    1
    42    15    19    1
    43    15    24    1
    44    15    25    1
    45    16    47    1
    46    16    48    1
    47    17    49    1
    48    17    50    1
    49    17    51    1
    50    18    52    1
    51    18    53    1
    52    18    54    1
    53    19    55    1
    54    19    56    1
    55    20    57    1
    56    20    58    1
    57    20    59    1
    58    21    60    1
    59    21    61    1
    60    21    62    1
    61    22    26    1
    62    22    63    1
    63    22    64    1
    64    23    28    1
    65    23    29    1
    66    23    65    1
    67    24    27    2
    68    24    30    1
    69    25    66    1
    70    25    67    1
    71    25    68    1
    72    26    27    1
    73    26    69    1
    74    26    70    1
    75    27    71    1
    76    28    72    1
    77    28    73    1
    78    28    74    1
    79    29    75    1
    80    29    76    1
    81    29    77    1
    82    30    78    1
    83    30    79    1
    84    30    80    1
