@<TRIPOS>MOLECULE
IMPHY011788
 73 76 0 0 0
SMALL
GASTEIGER

@<TRIPOS>ATOM
      1 O          10.4586   -1.3776    0.0000 O.2     1  UNL1       -0.2971
      2 O           2.5357   -3.9299    0.0000 O.3     1  UNL1       -0.3915
      3 O          10.8321   -0.1604    0.0000 O.2     1  UNL1       -0.2971
      4 O          13.0532    3.8479    0.0000 O.3     1  UNL1       -0.3947
      5 C           7.9288   -0.8776    0.0000 C.3     1  UNL1       -0.0184
      6 C           7.9288   -1.8776    0.0000 C.3     1  UNL1       -0.0249
      7 C           7.0628   -2.3776    0.0000 C.3     1  UNL1       -0.0303
      8 C           6.1968   -1.8776    0.0000 C.3     1  UNL1       -0.0285
      9 C           5.2868   -2.3844    0.0000 C.3     1  UNL1       -0.0078
     10 C           8.8750   -0.5728    0.0000 C.3     1  UNL1        0.0324
     11 C           7.0628   -0.3776    0.0000 C.3     1  UNL1       -0.0464
     12 C           6.1968   -0.8776    0.0000 C.3     1  UNL1       -0.0486
     13 C           8.8750   -2.1823    0.0000 C.3     1  UNL1        0.0098
     14 C           7.0789   -3.4191    0.0000 C.3     1  UNL1       -0.0311
     15 C           9.4586   -1.3776    0.0000 C.2     1  UNL1        0.1379
     16 C           5.2787   -3.4260    0.0000 C.2     1  UNL1       -0.0648
     17 C           7.9288    0.1224    0.0000 C.3     1  UNL1       -0.0586
     18 C           4.3599   -1.8203    0.0000 C.3     1  UNL1       -0.0413
     19 C           9.1857    0.3777    0.0000 C.3     1  UNL1        0.0247
     20 C           6.1808   -3.9468    0.0000 C.2     1  UNL1       -0.0839
     21 C           5.2945   -1.3844    0.0000 C.3     1  UNL1       -0.0556
     22 C           4.3433   -3.9758    0.0000 C.3     1  UNL1       -0.0051
     23 C           3.4120   -2.3483    0.0000 C.3     1  UNL1       -0.0258
     24 C           3.4037   -3.4332    0.0000 C.3     1  UNL1        0.0590
     25 C           8.5179    1.1220    0.0000 C.3     1  UNL1       -0.0550
     26 C          10.1642    0.5839    0.0000 C.2     1  UNL1        0.1368
     27 C          10.4749    1.5344    0.0000 C.3     1  UNL1        0.0064
     28 C          11.4534    1.7406    0.0000 C.3     1  UNL1       -0.0417
     29 C          11.7640    2.6912    0.0000 C.3     1  UNL1       -0.0203
     30 C          12.7425    2.8974    0.0000 C.3     1  UNL1        0.0468
     31 C          11.0962    3.4354    0.0000 C.3     1  UNL1       -0.0603
     32 H           8.0188   -2.7228    0.0000 H       1  UNL1        0.0313
     33 H           7.8022   -2.7969    0.0000 H       1  UNL1        0.0310
     34 H           6.9329   -1.4526    0.0000 H       1  UNL1        0.0312
     35 H           9.7148   -0.4410    0.0000 H       1  UNL1        0.0389
     36 H           7.4613    0.0974    0.0000 H       1  UNL1        0.0271
     37 H           6.6643    0.0974    0.0000 H       1  UNL1        0.0271
     38 H           5.9847   -0.2950    0.0000 H       1  UNL1        0.0268
     39 H           5.5862   -0.9852    0.0000 H       1  UNL1        0.0268
     40 H           8.6240   -2.7492    0.0000 H       1  UNL1        0.0345
     41 H           9.4124   -2.4915    0.0000 H       1  UNL1        0.0345
     42 H           7.2969   -3.9995    0.0000 H       1  UNL1        0.0310
     43 H           7.6880   -3.3036    0.0000 H       1  UNL1        0.0310
     44 H           8.5488    0.1224    0.0000 H       1  UNL1        0.0235
     45 H           7.9288    0.7424    0.0000 H       1  UNL1        0.0235
     46 H           7.3088    0.1224    0.0000 H       1  UNL1        0.0235
     47 H           4.7681   -1.3537    0.0000 H       1  UNL1        0.0274
     48 H           3.9700   -1.3383    0.0000 H       1  UNL1        0.0274
     49 H           9.3783    0.9670    0.0000 H       1  UNL1        0.0382
     50 H           6.1832   -4.5668    0.0000 H       1  UNL1        0.0572
     51 H           5.9145   -1.3892    0.0000 H       1  UNL1        0.0238
     52 H           5.2993   -0.7645    0.0000 H       1  UNL1        0.0238
     53 H           4.6745   -1.3797    0.0000 H       1  UNL1        0.0238
     54 H           3.9460   -4.4517    0.0000 H       1  UNL1        0.0335
     55 H           4.7443   -4.4486    0.0000 H       1  UNL1        0.0335
     56 H           3.2075   -1.7630    0.0000 H       1  UNL1        0.0290
     57 H           2.8004   -2.4497    0.0000 H       1  UNL1        0.0290
     58 H           3.4025   -4.0532    0.0000 H       1  UNL1        0.0596
     59 H           8.9793    1.5360    0.0000 H       1  UNL1        0.0237
     60 H           8.1038    1.5834    0.0000 H       1  UNL1        0.0237
     61 H           8.0564    0.7079    0.0000 H       1  UNL1        0.0237
     62 H          10.4543    2.1541    0.0000 H       1  UNL1        0.0342
     63 H           9.8611    1.6218    0.0000 H       1  UNL1        0.0342
     64 H           2.0000   -3.6178    0.0000 H       1  UNL1        0.2098
     65 H          11.4739    1.1210    0.0000 H       1  UNL1        0.0273
     66 H          12.0672    1.6533    0.0000 H       1  UNL1        0.0273
     67 H          11.9567    3.2805    0.0000 H       1  UNL1        0.0320
     68 H          12.7631    2.2777    0.0000 H       1  UNL1        0.0560
     69 H          13.3564    2.8100    0.0000 H       1  UNL1        0.0560
     70 H          11.5577    3.8495    0.0000 H       1  UNL1        0.0233
     71 H          10.6821    3.8969    0.0000 H       1  UNL1        0.0233
     72 H          10.6347    3.0214    0.0000 H       1  UNL1        0.0233
     73 H          13.6599    3.9758    0.0000 H       1  UNL1        0.2094
@<TRIPOS>BOND
     1     1    15    2
     2    24     2    1
     3     2    64    1
     4     3    26    2
     5     4    30    1
     6     4    73    1
     7     5     6    1
     8     5    10    1
     9     5    11    1
    10     5    17    1
    11     6     7    1
    12     6    13    1
    13     6    32    1
    14     7     8    1
    15     7    14    1
    16     7    33    1
    17     8     9    1
    18     8    12    1
    19     8    34    1
    20     9    16    1
    21     9    18    1
    22     9    21    1
    23    10    15    1
    24    10    19    1
    25    10    35    1
    26    11    12    1
    27    11    36    1
    28    11    37    1
    29    12    38    1
    30    12    39    1
    31    13    15    1
    32    13    40    1
    33    13    41    1
    34    14    20    1
    35    14    42    1
    36    14    43    1
    37    16    20    2
    38    16    22    1
    39    17    44    1
    40    17    45    1
    41    17    46    1
    42    18    23    1
    43    18    47    1
    44    18    48    1
    45    19    25    1
    46    19    26    1
    47    19    49    1
    48    20    50    1
    49    21    51    1
    50    21    52    1
    51    21    53    1
    52    22    24    1
    53    22    54    1
    54    22    55    1
    55    23    24    1
    56    23    56    1
    57    23    57    1
    58    24    58    1
    59    25    59    1
    60    25    60    1
    61    25    61    1
    62    26    27    1
    63    27    28    1
    64    27    62    1
    65    27    63    1
    66    28    29    1
    67    28    65    1
    68    28    66    1
    69    29    30    1
    70    29    31    1
    71    29    67    1
    72    30    68    1
    73    30    69    1
    74    31    70    1
    75    31    71    1
    76    31    72    1
