@<TRIPOS>MOLECULE
IMPHY009239
 43 45 0 0 0
SMALL
GASTEIGER

@<TRIPOS>ATOM
      1 O           3.7230   -0.4166    0.0000 O.3     1  UNL1       -0.4604
      2 O           4.6239   -1.4635    0.0000 O.3     1  UNL1       -0.3833
      3 O           7.0268   -2.4052    0.0000 O.3     1  UNL1       -0.3888
      4 O           4.5447    2.7487    0.0000 O.3     1  UNL1       -0.3911
      5 O           4.4970   -2.6508    0.0000 O.3     1  UNL1       -0.3921
      6 O           2.0000    0.0155    0.0000 O.2     1  UNL1       -0.2505
      7 C           5.4786   -0.3429    0.0000 C.3     1  UNL1        0.0365
      8 C           6.3796    0.0910    0.0000 C.3     1  UNL1       -0.0087
      9 C           5.6146   -1.3276    0.0000 C.3     1  UNL1        0.1213
     10 C           4.5777    0.0910    0.0000 C.3     1  UNL1        0.1151
     11 C           4.3551    1.0660    0.0000 C.3     1  UNL1        0.0354
     12 C           6.5929   -1.5042    0.0000 C.3     1  UNL1        0.0870
     13 C           7.0647   -0.6293    0.0000 C.3     1  UNL1       -0.0171
     14 C           4.9786    1.8478    0.0000 C.3     1  UNL1        0.0658
     15 C           3.3648    1.1525    0.0000 C.3     1  UNL1        0.0622
     16 C           6.6021    1.0660    0.0000 C.2     1  UNL1       -0.0705
     17 C           5.9786    1.8478    0.0000 C.3     1  UNL1       -0.0052
     18 C           5.4378   -2.3118    0.0000 C.3     1  UNL1        0.0758
     19 C           2.9749    0.2381    0.0000 C.2     1  UNL1        0.3107
     20 C           2.8504    2.0100    0.0000 C.3     1  UNL1       -0.0518
     21 C           7.5770    1.2885    0.0000 C.2     1  UNL1       -0.0991
     22 H           4.7916   -0.8434    0.0000 H       1  UNL1        0.0372
     23 H           7.1993    0.3161    0.0000 H       1  UNL1        0.0351
     24 H           4.6147   -0.7582    0.0000 H       1  UNL1        0.0741
     25 H           4.0200    1.8471    0.0000 H       1  UNL1        0.0370
     26 H           7.2127   -1.5184    0.0000 H       1  UNL1        0.0623
     27 H           7.5765   -0.9793    0.0000 H       1  UNL1        0.0297
     28 H           7.4666   -0.1571    0.0000 H       1  UNL1        0.0297
     29 H           5.3085    2.3728    0.0000 H       1  UNL1        0.0600
     30 H           3.6936    1.6782    0.0000 H       1  UNL1        0.0415
     31 H           6.5372    2.1168    0.0000 H       1  UNL1        0.0335
     32 H           5.8407    2.4522    0.0000 H       1  UNL1        0.0335
     33 H           5.5434   -2.9228    0.0000 H       1  UNL1        0.0587
     34 H           6.0578   -2.3138    0.0000 H       1  UNL1        0.0587
     35 H           4.3898   -2.0376    0.0000 H       1  UNL1        0.2104
     36 H           3.3821    2.3290    0.0000 H       1  UNL1        0.0238
     37 H           2.5315    2.5417    0.0000 H       1  UNL1        0.0238
     38 H           2.3188    1.6911    0.0000 H       1  UNL1        0.0238
     39 H           7.6450   -2.4516    0.0000 H       1  UNL1        0.2099
     40 H           7.9988    0.8340    0.0000 H       1  UNL1        0.0534
     41 H           7.7598    1.8809    0.0000 H       1  UNL1        0.0534
     42 H           4.8940    3.2610    0.0000 H       1  UNL1        0.2098
     43 H           4.3873   -3.2610    0.0000 H       1  UNL1        0.2095
@<TRIPOS>BOND
     1     1    10    1
     2     1    19    1
     3     9     2    1
     4     2    35    1
     5    12     3    1
     6     3    39    1
     7    14     4    1
     8     4    42    1
     9     5    18    1
    10     5    43    1
    11     6    19    2
    12     7     8    1
    13     7     9    1
    14     7    10    1
    15     7    22    1
    16     8    13    1
    17     8    16    1
    18     8    23    1
    19     9    12    1
    20     9    18    1
    21    10    11    1
    22    10    24    1
    23    11    14    1
    24    11    15    1
    25    11    25    1
    26    12    13    1
    27    12    26    1
    28    13    27    1
    29    13    28    1
    30    14    17    1
    31    14    29    1
    32    15    19    1
    33    15    20    1
    34    15    30    1
    35    16    17    1
    36    16    21    2
    37    17    31    1
    38    17    32    1
    39    18    33    1
    40    18    34    1
    41    20    36    1
    42    20    37    1
    43    20    38    1
    44    21    40    1
    45    21    41    1
