@<TRIPOS>MOLECULE
IMPHY012516
 70 74 0 0 0
SMALL
GASTEIGER

@<TRIPOS>ATOM
      1 O           5.8380   -2.3453    0.0000 O.3     1  UNL1       -0.3513
      2 O           3.3389    1.6846    0.0000 O.3     1  UNL1       -0.3692
      3 O           4.5896   -2.5138    0.0000 O.2     1  UNL1       -0.2967
      4 O           5.9546    1.9109    0.0000 O.3     1  UNL1       -0.3944
      5 O           9.0701   -1.4793    0.0000 O.3     1  UNL1       -0.3864
      6 O           6.8380   -4.0773    0.0000 O.3     1  UNL1       -0.4787
      7 O           8.3380   -3.2113    0.0000 O.2     1  UNL1       -0.2480
      8 O           9.0404    1.4694    0.0000 O.2     1  UNL1       -0.4707
      9 O           4.0563    4.1967    0.0000 O.3     1  UNL1       -0.4806
     10 O           2.8897    2.9165    0.0000 O.2     1  UNL1       -0.2509
     11 C           6.3380   -1.4793    0.0000 C.3     1  UNL1        0.1273
     12 C           5.4720   -0.9793    0.0000 C.3     1  UNL1        0.0622
     13 C           5.4720    0.0207    0.0000 C.3     1  UNL1       -0.0157
     14 C           4.5780    0.5554    0.0000 C.3     1  UNL1        0.0301
     15 C           7.2040   -0.9793    0.0000 C.3     1  UNL1        0.0311
     16 C           3.6720    0.0416    0.0000 C.3     1  UNL1        0.0047
     17 C           6.8380   -2.3453    0.0000 C.3     1  UNL1        0.1858
     18 C           6.3380    0.5207    0.0000 C.3     1  UNL1       -0.0479
     19 C           7.2040    0.0207    0.0000 C.3     1  UNL1       -0.0419
     20 C           4.3680    1.5693    0.0000 C.3     1  UNL1        0.0778
     21 C           4.5780   -1.5139    0.0000 C.2     1  UNL1        0.1427
     22 C           3.6720   -1.0001    0.0000 C.3     1  UNL1        0.0126
     23 C           2.9097    0.7423    0.0000 C.3     1  UNL1        0.0682
     24 C           5.1301   -1.9190    0.0000 C.3     1  UNL1       -0.0498
     25 C           5.4479    1.0487    0.0000 C.3     1  UNL1        0.0528
     26 C           8.2040   -0.9793    0.0000 C.3     1  UNL1        0.0912
     27 C           7.7040   -1.8453    0.0000 C.3     1  UNL1       -0.0541
     28 C           7.3380   -3.2113    0.0000 C.2     1  UNL1        0.3369
     29 C           4.5817    2.5462    0.0000 C.3     1  UNL1        0.0716
     30 C           2.0000    1.1576    0.0000 C.3     1  UNL1       -0.0358
     31 C           2.2336    0.0055    0.0000 C.3     1  UNL1       -0.0358
     32 C           8.7040   -0.1132    0.0000 C.ar    1  UNL1        0.0191
     33 C           3.8426    3.2198    0.0000 C.2     1  UNL1        0.3072
     34 C           9.6986   -0.0087    0.0000 C.ar    1  UNL1       -0.0183
     35 C           8.2973    0.8003    0.0000 C.ar    1  UNL1        0.0973
     36 C           9.9065    0.9694    0.0000 C.ar    1  UNL1        0.0920
     37 H           6.2081   -0.4043    0.0000 H       1  UNL1        0.0318
     38 H           2.8937   -0.3002    0.0000 H       1  UNL1        0.0339
     39 H           6.5280   -2.8822    0.0000 H       1  UNL1        0.0743
     40 H           6.7366    0.9957    0.0000 H       1  UNL1        0.0269
     41 H           5.9395    0.9957    0.0000 H       1  UNL1        0.0269
     42 H           7.8146   -0.0869    0.0000 H       1  UNL1        0.0272
     43 H           7.4161    0.6034    0.0000 H       1  UNL1        0.0272
     44 H           4.0067    2.0732    0.0000 H       1  UNL1        0.0608
     45 H           3.0611   -0.8940    0.0000 H       1  UNL1        0.0346
     46 H           3.4629   -1.5838    0.0000 H       1  UNL1        0.0346
     47 H           4.5474   -1.7070    0.0000 H       1  UNL1        0.0240
     48 H           4.9181   -2.5016    0.0000 H       1  UNL1        0.0240
     49 H           5.7127   -2.1310    0.0000 H       1  UNL1        0.0240
     50 H           5.5509    0.4373    0.0000 H       1  UNL1        0.0564
     51 H           5.0129    1.4905    0.0000 H       1  UNL1        0.0564
     52 H           8.0436   -1.5781    0.0000 H       1  UNL1        0.0651
     53 H           7.1671   -2.1553    0.0000 H       1  UNL1        0.0237
     54 H           8.0140   -2.3822    0.0000 H       1  UNL1        0.0237
     55 H           8.2410   -1.5353    0.0000 H       1  UNL1        0.0237
     56 H           5.1552    2.3105    0.0000 H       1  UNL1        0.0403
     57 H           4.9134    3.0700    0.0000 H       1  UNL1        0.0403
     58 H           2.2575    1.7216    0.0000 H       1  UNL1        0.0257
     59 H           1.4360    1.4152    0.0000 H       1  UNL1        0.0257
     60 H           1.7425    0.5937    0.0000 H       1  UNL1        0.0257
     61 H           1.7767    0.4247    0.0000 H       1  UNL1        0.0257
     62 H           1.8144   -0.4513    0.0000 H       1  UNL1        0.0257
     63 H           2.6904   -0.4137    0.0000 H       1  UNL1        0.0257
     64 H           6.5746    1.9061    0.0000 H       1  UNL1        0.2094
     65 H           9.6070   -1.1693    0.0000 H       1  UNL1        0.2103
     66 H           7.1480   -4.6143    0.0000 H       1  UNL1        0.2951
     67 H          10.1134   -0.4695    0.0000 H       1  UNL1        0.0652
     68 H           7.6909    0.9292    0.0000 H       1  UNL1        0.1033
     69 H          10.4729    1.2216    0.0000 H       1  UNL1        0.1029
     70 H           3.5981    4.6143    0.0000 H       1  UNL1        0.2951
@<TRIPOS>BOND
     1    11     1    1
     2     1    17    1
     3     2    20    1
     4     2    23    1
     5     3    21    2
     6     4    25    1
     7     4    64    1
     8    26     5    1
     9     5    65    1
    10     6    28    1
    11     6    66    1
    12     7    28    2
    13     8    35   ar
    14     8    36   ar
    15     9    33    1
    16     9    70    1
    17    10    33    2
    18    11    12    1
    19    11    15    1
    20    11    17    1
    21    12    13    1
    22    12    21    1
    23    12    24    1
    24    13    14    1
    25    13    18    1
    26    13    37    1
    27    14    16    1
    28    14    20    1
    29    14    25    1
    30    15    19    1
    31    15    26    1
    32    15    27    1
    33    16    22    1
    34    16    23    1
    35    16    38    1
    36    17    28    1
    37    17    39    1
    38    18    19    1
    39    18    40    1
    40    18    41    1
    41    19    42    1
    42    19    43    1
    43    20    29    1
    44    20    44    1
    45    21    22    1
    46    22    45    1
    47    22    46    1
    48    23    30    1
    49    23    31    1
    50    24    47    1
    51    24    48    1
    52    24    49    1
    53    25    50    1
    54    25    51    1
    55    26    32    1
    56    26    52    1
    57    27    53    1
    58    27    54    1
    59    27    55    1
    60    29    33    1
    61    29    56    1
    62    29    57    1
    63    30    58    1
    64    30    59    1
    65    30    60    1
    66    31    61    1
    67    31    62    1
    68    31    63    1
    69    32    34   ar
    70    32    35   ar
    71    34    36   ar
    72    34    67    1
    73    35    68    1
    74    36    69    1
