@<TRIPOS>MOLECULE
IMPHY008284
 190 194 0 0 0
SMALL
GASTEIGER

@<TRIPOS>ATOM
      1 O          27.6507   -1.8922    0.0000 O.3     1  UNL1       -0.3734
      2 O          29.4650   -3.6701    0.0000 O.3     1  UNL1       -0.3944
      3 O          36.5758    1.1943    0.0000 O.3     1  UNL1       -0.4802
      4 O          35.7214   -0.3123    0.0000 O.2     1  UNL1       -0.2504
      5 O          25.9149   -2.8855    0.0000 O.3     1  UNL1       -0.3894
      6 O          24.1828   -2.8788    0.0000 O.3     1  UNL1       -0.3927
      7 O          23.3264   -0.3755    0.0000 O.co2   1  UNL1       -0.8499
      8 O          22.4508   -2.8722    0.0000 O.3     1  UNL1       -0.3901
      9 O          21.5944   -0.3688    0.0000 O.3     1  UNL1       -0.3866
     10 O          20.7187   -2.8655    0.0000 O.3     1  UNL1       -0.3865
     11 O          19.8624   -0.3621    0.0000 O.3     1  UNL1       -0.3865
     12 O          18.9867   -2.8588    0.0000 O.3     1  UNL1       -0.3865
     13 O          18.1303   -0.3555    0.0000 O.3     1  UNL1       -0.3865
     14 O          17.2547   -2.8521    0.0000 O.3     1  UNL1       -0.3865
     15 O          16.3983   -0.3488    0.0000 O.3     1  UNL1       -0.3865
     16 O          15.5226   -2.8454    0.0000 O.3     1  UNL1       -0.3865
     17 O          14.6662   -0.3421    0.0000 O.3     1  UNL1       -0.3865
     18 O          13.7906   -2.8388    0.0000 O.3     1  UNL1       -0.3865
     19 O          12.9342   -0.3354    0.0000 O.3     1  UNL1       -0.3865
     20 O          12.0586   -2.8321    0.0000 O.3     1  UNL1       -0.3865
     21 O          11.2022   -0.3288    0.0000 O.3     1  UNL1       -0.3866
     22 O          10.3265   -2.8254    0.0000 O.3     1  UNL1       -0.3891
     23 O           8.5945   -2.8187    0.0000 O.3     1  UNL1       -0.3916
     24 O           6.8624   -2.8121    0.0000 O.3     1  UNL1       -0.3916
     25 O           5.1304   -2.8054    0.0000 O.3     1  UNL1       -0.3916
     26 O           2.5381   -1.2954    0.0000 O.3     1  UNL1       -0.3920
     27 C          32.1778   -0.3398    0.0000 C.3     1  UNL1       -0.0194
     28 C          31.3118    0.1601    0.0000 C.3     1  UNL1       -0.0257
     29 C          30.4018   -0.3467    0.0000 C.3     1  UNL1       -0.0249
     30 C          33.0438    0.1601    0.0000 C.3     1  UNL1       -0.0051
     31 C          30.3938   -1.3883    0.0000 C.3     1  UNL1       -0.0255
     32 C          32.1939   -1.3814    0.0000 C.3     1  UNL1       -0.0463
     33 C          29.4583   -1.9380    0.0000 C.3     1  UNL1        0.0205
     34 C          31.2958   -1.9091    0.0000 C.3     1  UNL1       -0.0485
     35 C          33.0438    1.1602    0.0000 C.2     1  UNL1       -0.0629
     36 C          31.3118    1.1602    0.0000 C.3     1  UNL1       -0.0306
     37 C          29.4749    0.2174    0.0000 C.3     1  UNL1       -0.0447
     38 C          33.9378    1.6948    0.0000 C.3     1  UNL1       -0.0031
     39 C          33.9378   -0.3745    0.0000 C.3     1  UNL1       -0.0424
     40 C          34.8438    1.1810    0.0000 C.3     1  UNL1        0.0741
     41 C          32.8206   -1.1059    0.0000 C.3     1  UNL1       -0.0585
     42 C          28.5187   -1.3955    0.0000 C.3     1  UNL1        0.0665
     43 C          34.8438    0.1393    0.0000 C.3     1  UNL1       -0.0359
     44 C          30.4095    0.6533    0.0000 C.3     1  UNL1       -0.0590
     45 C          28.5271   -0.3106    0.0000 C.3     1  UNL1       -0.0255
     46 C          32.1778    1.6602    0.0000 C.2     1  UNL1       -0.0836
     47 C          33.3859   -0.7795    0.0000 C.3     1  UNL1       -0.0553
     48 C          33.9127    2.7795    0.0000 C.3     1  UNL1       -0.0403
     49 C          35.7876    1.7162    0.0000 C.3     1  UNL1       -0.0362
     50 C          34.8438    3.3364    0.0000 C.3     1  UNL1       -0.0343
     51 C          28.9617   -2.8060    0.0000 C.3     1  UNL1        0.0522
     52 C          29.9617   -2.8021    0.0000 C.3     1  UNL1       -0.0548
     53 C          35.7876    2.8012    0.0000 C.3     1  UNL1       -0.0468
     54 C          35.7137    0.6877    0.0000 C.2     1  UNL1        0.3115
     55 C          35.3338    4.2082    0.0000 C.3     1  UNL1       -0.0598
     56 C          34.3339    4.1966    0.0000 C.3     1  UNL1       -0.0598
     57 C          26.7867   -1.3888    0.0000 C.3     1  UNL1        0.0740
     58 C          25.9187   -1.8855    0.0000 C.3     1  UNL1        0.0808
     59 C          25.0546   -1.3822    0.0000 C.3     1  UNL1        0.0005
     60 C          24.1867   -1.8788    0.0000 C.3     1  UNL1        0.0478
     61 C          23.3226   -1.3755    0.0000 C.3     1  UNL1       -0.0703
     62 C          22.4546   -1.8722    0.0000 C.3     1  UNL1        0.0737
     63 C          21.5905   -1.3688    0.0000 C.3     1  UNL1        0.1084
     64 C          20.7226   -1.8655    0.0000 C.3     1  UNL1        0.1117
     65 C          19.8585   -1.3621    0.0000 C.3     1  UNL1        0.1118
     66 C          18.9906   -1.8588    0.0000 C.3     1  UNL1        0.1118
     67 C          18.1265   -1.3555    0.0000 C.3     1  UNL1        0.1118
     68 C          17.2585   -1.8521    0.0000 C.3     1  UNL1        0.1118
     69 C          16.3944   -1.3488    0.0000 C.3     1  UNL1        0.1118
     70 C          15.5265   -1.8454    0.0000 C.3     1  UNL1        0.1118
     71 C          14.6624   -1.3421    0.0000 C.3     1  UNL1        0.1118
     72 C          13.7944   -1.8388    0.0000 C.3     1  UNL1        0.1118
     73 C          12.9304   -1.3354    0.0000 C.3     1  UNL1        0.1118
     74 C          12.0624   -1.8321    0.0000 C.3     1  UNL1        0.1117
     75 C          11.1983   -1.3288    0.0000 C.3     1  UNL1        0.1094
     76 C          10.3304   -1.8254    0.0000 C.3     1  UNL1        0.0859
     77 C           9.4663   -1.3221    0.0000 C.3     1  UNL1        0.0019
     78 C           8.5983   -1.8187    0.0000 C.3     1  UNL1        0.0600
     79 C           7.7342   -1.3154    0.0000 C.3     1  UNL1       -0.0006
     80 C           6.8663   -1.8121    0.0000 C.3     1  UNL1        0.0599
     81 C           6.0022   -1.3087    0.0000 C.3     1  UNL1       -0.0006
     82 C           5.1343   -1.8054    0.0000 C.3     1  UNL1        0.0599
     83 C           4.2702   -1.3021    0.0000 C.3     1  UNL1       -0.0009
     84 C           3.4022   -1.7987    0.0000 C.3     1  UNL1        0.0548
     85 C           3.3984   -2.7987    0.0000 C.3     1  UNL1       -0.0389
     86 H          31.8487    0.4702    0.0000 H       1  UNL1        0.0315
     87 H          30.3961   -2.0083    0.0000 H       1  UNL1        0.0313
     88 H          32.4119   -1.9618    0.0000 H       1  UNL1        0.0271
     89 H          32.8030   -1.2659    0.0000 H       1  UNL1        0.0271
     90 H          30.8985   -2.3851    0.0000 H       1  UNL1        0.0268
     91 H          31.6968   -2.3820    0.0000 H       1  UNL1        0.0268
     92 H          31.0997    1.7428    0.0000 H       1  UNL1        0.0310
     93 H          30.7012    1.0525    0.0000 H       1  UNL1        0.0310
     94 H          29.8832    0.6840    0.0000 H       1  UNL1        0.0271
     95 H          29.0850    0.6994    0.0000 H       1  UNL1        0.0271
     96 H          34.4699    2.0130    0.0000 H       1  UNL1        0.0357
     97 H          33.5332   -0.8443    0.0000 H       1  UNL1        0.0274
     98 H          34.3314   -0.8535    0.0000 H       1  UNL1        0.0274
     99 H          32.3456   -1.5044    0.0000 H       1  UNL1        0.0235
    100 H          33.2191   -1.5808    0.0000 H       1  UNL1        0.0235
    101 H          33.2955   -0.7074    0.0000 H       1  UNL1        0.0235
    102 H          28.5175   -2.0155    0.0000 H       1  UNL1        0.0602
    103 H          35.0529   -0.4444    0.0000 H       1  UNL1        0.0276
    104 H          35.4547    0.2454    0.0000 H       1  UNL1        0.0276
    105 H          31.0295    0.6485    0.0000 H       1  UNL1        0.0235
    106 H          30.4143    1.2733    0.0000 H       1  UNL1        0.0235
    107 H          29.7895    0.6581    0.0000 H       1  UNL1        0.0235
    108 H          28.3225    0.2747    0.0000 H       1  UNL1        0.0290
    109 H          27.9154   -0.4119    0.0000 H       1  UNL1        0.0290
    110 H          32.1778    2.2802    0.0000 H       1  UNL1        0.0572
    111 H          32.8034   -0.9916    0.0000 H       1  UNL1        0.0238
    112 H          33.5981   -1.3621    0.0000 H       1  UNL1        0.0238
    113 H          33.9685   -0.5674    0.0000 H       1  UNL1        0.0238
    114 H          33.6902    3.3582    0.0000 H       1  UNL1        0.0276
    115 H          33.3044    2.6593    0.0000 H       1  UNL1        0.0276
    116 H          35.9967    1.1325    0.0000 H       1  UNL1        0.0276
    117 H          36.3985    1.8223    0.0000 H       1  UNL1        0.0276
    118 H          28.4852   -2.4093    0.0000 H       1  UNL1        0.0563
    119 H          28.4883   -3.2063    0.0000 H       1  UNL1        0.0563
    120 H          29.4259   -3.1142    0.0000 H       1  UNL1        0.0237
    121 H          30.2737   -3.3378    0.0000 H       1  UNL1        0.0237
    122 H          30.4974   -2.4900    0.0000 H       1  UNL1        0.0237
    123 H          36.3985    2.6951    0.0000 H       1  UNL1        0.0271
    124 H          35.9967    3.3849    0.0000 H       1  UNL1        0.0271
    125 H          34.8672    4.5128    0.0000 H       1  UNL1        0.0235
    126 H          34.0177    4.7299    0.0000 H       1  UNL1        0.0235
    127 H          33.8005    3.8804    0.0000 H       1  UNL1        0.0235
    128 H          35.8743    3.9044    0.0000 H       1  UNL1        0.0235
    129 H          35.6376    4.7487    0.0000 H       1  UNL1        0.0235
    130 H          34.7933    4.5120    0.0000 H       1  UNL1        0.0235
    131 H          29.1571   -4.2082    0.0000 H       1  UNL1        0.2094
    132 H          27.1870   -0.9154    0.0000 H       1  UNL1        0.0586
    133 H          26.3900   -0.9124    0.0000 H       1  UNL1        0.0586
    134 H          37.1152    0.8885    0.0000 H       1  UNL1        0.2951
    135 H          25.3806   -2.1934    0.0000 H       1  UNL1        0.0617
    136 H          25.4550   -0.9088    0.0000 H       1  UNL1        0.0315
    137 H          24.6579   -0.9057    0.0000 H       1  UNL1        0.0315
    138 H          25.3767   -3.1934    0.0000 H       1  UNL1        0.2099
    139 H          24.7224   -2.1909    0.0000 H       1  UNL1        0.0584
    140 H          22.7868   -1.0634    0.0000 H       1  UNL1        0.0163
    141 H          23.6447   -3.1868    0.0000 H       1  UNL1        0.2097
    142 H          22.9904   -2.1842    0.0000 H       1  UNL1        0.0610
    143 H          21.0548   -1.0568    0.0000 H       1  UNL1        0.0645
    144 H          21.9127   -3.1801    0.0000 H       1  UNL1        0.2098
    145 H          21.2583   -2.1775    0.0000 H       1  UNL1        0.0647
    146 H          21.0587   -0.0568    0.0000 H       1  UNL1        0.2100
    147 H          19.3228   -1.0501    0.0000 H       1  UNL1        0.0647
    148 H          20.1806   -3.1734    0.0000 H       1  UNL1        0.2100
    149 H          19.5263   -2.1709    0.0000 H       1  UNL1        0.0647
    150 H          19.3266   -0.0501    0.0000 H       1  UNL1        0.2100
    151 H          17.5907   -1.0434    0.0000 H       1  UNL1        0.0647
    152 H          18.4486   -3.1667    0.0000 H       1  UNL1        0.2100
    153 H          17.7943   -2.1642    0.0000 H       1  UNL1        0.0647
    154 H          17.5946   -0.0434    0.0000 H       1  UNL1        0.2100
    155 H          15.8587   -1.0367    0.0000 H       1  UNL1        0.0647
    156 H          16.7165   -3.1600    0.0000 H       1  UNL1        0.2100
    157 H          14.9884   -2.1534    0.0000 H       1  UNL1        0.0647
    158 H          15.8625   -0.0367    0.0000 H       1  UNL1        0.2100
    159 H          15.2005   -1.0342    0.0000 H       1  UNL1        0.0647
    160 H          14.9845   -3.1534    0.0000 H       1  UNL1        0.2100
    161 H          14.3302   -2.1508    0.0000 H       1  UNL1        0.0647
    162 H          12.3946   -1.0234    0.0000 H       1  UNL1        0.0647
    163 H          14.1305   -0.0301    0.0000 H       1  UNL1        0.2100
    164 H          12.5981   -2.1442    0.0000 H       1  UNL1        0.0647
    165 H          13.2525   -3.1467    0.0000 H       1  UNL1        0.2100
    166 H          10.6626   -1.0167    0.0000 H       1  UNL1        0.0646
    167 H          12.3985   -0.0234    0.0000 H       1  UNL1        0.2100
    168 H          10.8661   -2.1375    0.0000 H       1  UNL1        0.0621
    169 H          11.5204   -3.1400    0.0000 H       1  UNL1        0.2100
    170 H           9.8666   -0.8487    0.0000 H       1  UNL1        0.0316
    171 H           9.0696   -0.8456    0.0000 H       1  UNL1        0.0316
    172 H           9.1341   -2.1308    0.0000 H       1  UNL1        0.0595
    173 H          10.6664   -0.0167    0.0000 H       1  UNL1        0.2100
    174 H           8.1346   -0.8420    0.0000 H       1  UNL1        0.0315
    175 H           7.3376   -0.8389    0.0000 H       1  UNL1        0.0315
    176 H           9.7884   -3.1333    0.0000 H       1  UNL1        0.2099
    177 H           7.4020   -2.1241    0.0000 H       1  UNL1        0.0595
    178 H           6.4026   -0.8353    0.0000 H       1  UNL1        0.0315
    179 H           5.6055   -0.8323    0.0000 H       1  UNL1        0.0315
    180 H           8.0564   -3.1267    0.0000 H       1  UNL1        0.2098
    181 H           5.6700   -2.1175    0.0000 H       1  UNL1        0.0595
    182 H           4.6705   -0.8286    0.0000 H       1  UNL1        0.0315
    183 H           3.8735   -0.8256    0.0000 H       1  UNL1        0.0315
    184 H           6.3243   -3.1200    0.0000 H       1  UNL1        0.2098
    185 H           2.8641   -2.1066    0.0000 H       1  UNL1        0.0591
    186 H           4.5923   -3.1133    0.0000 H       1  UNL1        0.2098
    187 H           2.7784   -2.7963    0.0000 H       1  UNL1        0.0254
    188 H           3.3960   -3.4187    0.0000 H       1  UNL1        0.0254
    189 H           4.0184   -2.8011    0.0000 H       1  UNL1        0.0254
    190 H           2.0000   -1.6033    0.0000 H       1  UNL1        0.2098
@<TRIPOS>UNITY_ATOM_ATTR
7 1
charge -1
@<TRIPOS>BOND
     1     1    42    1
     2     1    57    1
     3     2    51    1
     4     2   131    1
     5     3    54    1
     6     3   134    1
     7     4    54    2
     8     5    58    1
     9     5   138    1
    10     6    60    1
    11     6   141    1
    12     7    61    1
    13     8    62    1
    14     8   144    1
    15     9    63    1
    16     9   146    1
    17    10    64    1
    18    10   148    1
    19    11    65    1
    20    11   150    1
    21    12    66    1
    22    12   152    1
    23    13    67    1
    24    13   154    1
    25    14    68    1
    26    14   156    1
    27    15    69    1
    28    15   158    1
    29    16    70    1
    30    16   160    1
    31    17    71    1
    32    17   163    1
    33    18    72    1
    34    18   165    1
    35    19    73    1
    36    19   167    1
    37    20    74    1
    38    20   169    1
    39    21    75    1
    40    21   173    1
    41    22    76    1
    42    22   176    1
    43    23    78    1
    44    23   180    1
    45    24    80    1
    46    24   184    1
    47    25    82    1
    48    25   186    1
    49    26    84    1
    50    26   190    1
    51    27    28    1
    52    27    30    1
    53    27    32    1
    54    27    41    1
    55    28    29    1
    56    28    36    1
    57    28    86    1
    58    29    31    1
    59    29    37    1
    60    29    44    1
    61    30    35    1
    62    30    39    1
    63    30    47    1
    64    31    33    1
    65    31    34    1
    66    31    87    1
    67    32    34    1
    68    32    88    1
    69    32    89    1
    70    33    42    1
    71    33    51    1
    72    33    52    1
    73    34    90    1
    74    34    91    1
    75    35    38    1
    76    35    46    2
    77    36    46    1
    78    36    92    1
    79    36    93    1
    80    37    45    1
    81    37    94    1
    82    37    95    1
    83    38    40    1
    84    38    48    1
    85    38    96    1
    86    39    43    1
    87    39    97    1
    88    39    98    1
    89    40    43    1
    90    40    49    1
    91    40    54    1
    92    41    99    1
    93    41   100    1
    94    41   101    1
    95    42    45    1
    96    42   102    1
    97    43   103    1
    98    43   104    1
    99    44   105    1
   100    44   106    1
   101    44   107    1
   102    45   108    1
   103    45   109    1
   104    46   110    1
   105    47   111    1
   106    47   112    1
   107    47   113    1
   108    48    50    1
   109    48   114    1
   110    48   115    1
   111    49    53    1
   112    49   116    1
   113    49   117    1
   114    50    53    1
   115    50    55    1
   116    50    56    1
   117    51   118    1
   118    51   119    1
   119    52   120    1
   120    52   121    1
   121    52   122    1
   122    53   123    1
   123    53   124    1
   124    55   128    1
   125    55   129    1
   126    55   130    1
   127    56   125    1
   128    56   126    1
   129    56   127    1
   130    57    58    1
   131    57   132    1
   132    57   133    1
   133    58    59    1
   134    58   135    1
   135    59    60    1
   136    59   136    1
   137    59   137    1
   138    60    61    1
   139    60   139    1
   140    61    62    1
   141    61   140    1
   142    62    63    1
   143    62   142    1
   144    63    64    1
   145    63   143    1
   146    64    65    1
   147    64   145    1
   148    65    66    1
   149    65   147    1
   150    66    67    1
   151    66   149    1
   152    67    68    1
   153    67   151    1
   154    68    69    1
   155    68   153    1
   156    69    70    1
   157    69   155    1
   158    70    71    1
   159    70   157    1
   160    71    72    1
   161    71   159    1
   162    72    73    1
   163    72   161    1
   164    73    74    1
   165    73   162    1
   166    74    75    1
   167    74   164    1
   168    75    76    1
   169    75   166    1
   170    76    77    1
   171    76   168    1
   172    77    78    1
   173    77   170    1
   174    77   171    1
   175    78    79    1
   176    78   172    1
   177    79    80    1
   178    79   174    1
   179    79   175    1
   180    80    81    1
   181    80   177    1
   182    81    82    1
   183    81   178    1
   184    81   179    1
   185    82    83    1
   186    82   181    1
   187    83    84    1
   188    83   182    1
   189    83   183    1
   190    84    85    1
   191    84   185    1
   192    85   187    1
   193    85   188    1
   194    85   189    1
