@<TRIPOS>MOLECULE
IMPHY015776
 52 54 0 0 0
SMALL
GASTEIGER

@<TRIPOS>ATOM
      1 CL          3.8527   -2.9249    0.0000 Cl      1  UNL1       -0.1185
      2 O           4.2510    0.2146    0.0000 O.3     1  UNL1       -0.4574
      3 O           6.7910   -0.2742    0.0000 O.3     1  UNL1       -0.4582
      4 O           2.4384   -1.5107    0.0000 O.3     1  UNL1       -0.3762
      5 O           6.2032   -2.7066    0.0000 O.3     1  UNL1       -0.3774
      6 O           2.5383    0.2258    0.0000 O.2     1  UNL1       -0.2475
      7 O           7.6571   -1.7519    0.0000 O.2     1  UNL1       -0.2476
      8 N           5.0977    2.6588    0.0000 N.3     1  UNL1       -0.2886
      9 C           5.0977    1.6811    0.0000 C.3     1  UNL1        0.0723
     10 C           4.2510    1.1923    0.0000 C.3     1  UNL1        0.1236
     11 C           3.5564    2.1211    0.0000 C.3     1  UNL1       -0.0010
     12 C           4.0778    2.9032    0.0000 C.3     1  UNL1        0.0033
     13 C           5.9444    1.1923    0.0000 C.2     1  UNL1       -0.0148
     14 C           6.0332    2.9249    0.0000 C.3     1  UNL1        0.0182
     15 C           6.6415    2.1211    0.0000 C.2     1  UNL1       -0.0660
     16 C           3.4043   -1.2519    0.0000 C.3     1  UNL1        0.1783
     17 C           5.0977   -1.2519    0.0000 C.3     1  UNL1       -0.0016
     18 C           4.2510   -1.7407    0.0000 C.3     1  UNL1       -0.0064
     19 C           5.9444    0.2146    0.0000 C.3     1  UNL1        0.1153
     20 C           5.9444   -1.7407    0.0000 C.3     1  UNL1        0.1618
     21 C           3.4043   -0.2742    0.0000 C.2     1  UNL1        0.3409
     22 C           3.1455   -2.2178    0.0000 C.3     1  UNL1        0.0703
     23 C           5.0977   -0.2519    0.0000 C.3     1  UNL1       -0.0592
     24 C           6.7910   -1.2519    0.0000 C.2     1  UNL1        0.3394
     25 C           5.3709   -2.5599    0.0000 C.3     1  UNL1       -0.0253
     26 C           2.1796   -2.4766    0.0000 C.3     1  UNL1       -0.0456
     27 H           5.0977    1.0611    0.0000 H       1  UNL1        0.0547
     28 H           3.6627    0.9966    0.0000 H       1  UNL1        0.0753
     29 H           3.0829    2.5212    0.0000 H       1  UNL1        0.0314
     30 H           3.1052    1.6959    0.0000 H       1  UNL1        0.0314
     31 H           4.2921    3.4850    0.0000 H       1  UNL1        0.0428
     32 H           3.5252    3.1842    0.0000 H       1  UNL1        0.0428
     33 H           6.5699    3.2352    0.0000 H       1  UNL1        0.0470
     34 H           5.7913    3.4958    0.0000 H       1  UNL1        0.0470
     35 H           7.2615    2.1223    0.0000 H       1  UNL1        0.0586
     36 H           5.6347   -0.9419    0.0000 H       1  UNL1        0.0332
     37 H           3.8525   -2.2156    0.0000 H       1  UNL1        0.0302
     38 H           4.6495   -2.2157    0.0000 H       1  UNL1        0.0302
     39 H           5.3338    0.3223    0.0000 H       1  UNL1        0.0746
     40 H           5.7323   -0.3680    0.0000 H       1  UNL1        0.0746
     41 H           2.9851   -2.8167    0.0000 H       1  UNL1        0.0497
     42 H           5.7177   -0.2519    0.0000 H       1  UNL1        0.0233
     43 H           5.0977    0.3681    0.0000 H       1  UNL1        0.0233
     44 H           4.4777   -0.2519    0.0000 H       1  UNL1        0.0233
     45 H           4.8630   -2.2043    0.0000 H       1  UNL1        0.0263
     46 H           5.0153   -3.0678    0.0000 H       1  UNL1        0.0263
     47 H           5.8788   -2.9155    0.0000 H       1  UNL1        0.0263
     48 H           2.0000   -1.0723    0.0000 H       1  UNL1        0.2109
     49 H           2.0191   -1.8777    0.0000 H       1  UNL1        0.0245
     50 H           1.5807   -2.6370    0.0000 H       1  UNL1        0.0245
     51 H           2.3400   -3.0755    0.0000 H       1  UNL1        0.0245
     52 H           6.8021   -2.8671    0.0000 H       1  UNL1        0.2109
@<TRIPOS>BOND
     1     1    22    1
     2     2    10    1
     3     2    21    1
     4     3    19    1
     5     3    24    1
     6     4    16    1
     7     4    48    1
     8     5    20    1
     9     5    52    1
    10     6    21    2
    11     7    24    2
    12     8     9    1
    13     8    12    1
    14     8    14    1
    15     9    10    1
    16     9    13    1
    17     9    27    1
    18    10    11    1
    19    10    28    1
    20    11    12    1
    21    11    29    1
    22    11    30    1
    23    12    31    1
    24    12    32    1
    25    13    15    2
    26    13    19    1
    27    14    15    1
    28    14    33    1
    29    14    34    1
    30    15    35    1
    31    16    18    1
    32    16    21    1
    33    16    22    1
    34    17    18    1
    35    17    20    1
    36    17    23    1
    37    17    36    1
    38    18    37    1
    39    18    38    1
    40    19    39    1
    41    19    40    1
    42    20    24    1
    43    20    25    1
    44    22    26    1
    45    22    41    1
    46    23    42    1
    47    23    43    1
    48    23    44    1
    49    25    45    1
    50    25    46    1
    51    25    47    1
    52    26    49    1
    53    26    50    1
    54    26    51    1
