@<TRIPOS>MOLECULE
IMPHY004597
 42 43 0 0 0
SMALL
GASTEIGER

@<TRIPOS>ATOM
      1 O           6.0010    0.2500    0.0000 O.3     1  UNL1       -0.4465
      2 O           4.2690    1.2500    0.0000 O.3     1  UNL1       -0.4780
      3 O           8.5991    4.7500    0.0000 O.3     1  UNL1       -0.5033
      4 O           6.8671    5.7500    0.0000 O.3     1  UNL1       -0.5033
      5 O           5.1350    2.7500    0.0000 O.2     1  UNL1       -0.2468
      6 O           4.2690    0.2500    0.0000 O.2     1  UNL1       -0.2456
      7 O           2.5369   -4.7500    0.0000 O.3     1  UNL1       -0.5033
      8 O           4.2690   -5.7500    0.0000 O.3     1  UNL1       -0.5033
      9 C           6.8671    1.7500    0.0000 C.3     1  UNL1        0.0203
     10 C           6.0010    1.2500    0.0000 C.3     1  UNL1        0.2029
     11 C           6.8671    2.7500    0.0000 C.ar    1  UNL1       -0.0396
     12 C           7.7331    3.2500    0.0000 C.ar    1  UNL1       -0.0132
     13 C           6.0010    3.2500    0.0000 C.ar    1  UNL1       -0.0548
     14 C           5.1350    1.7500    0.0000 C.2     1  UNL1        0.3463
     15 C           7.7331    4.2500    0.0000 C.ar    1  UNL1        0.1585
     16 C           6.0010    4.2500    0.0000 C.ar    1  UNL1       -0.0163
     17 C           6.8671    4.7500    0.0000 C.ar    1  UNL1        0.1582
     18 C           5.1350   -0.2500    0.0000 C.2     1  UNL1        0.3327
     19 C           4.2690   -2.7500    0.0000 C.ar    1  UNL1       -0.0211
     20 C           5.1350   -1.2500    0.0000 C.2     1  UNL1        0.0231
     21 C           4.2690   -1.7500    0.0000 C.2     1  UNL1       -0.0477
     22 C           3.4030   -3.2500    0.0000 C.ar    1  UNL1       -0.0094
     23 C           5.1350   -3.2500    0.0000 C.ar    1  UNL1       -0.0509
     24 C           3.4030   -4.2500    0.0000 C.ar    1  UNL1        0.1588
     25 C           5.1350   -4.2500    0.0000 C.ar    1  UNL1       -0.0160
     26 C           4.2690   -4.7500    0.0000 C.ar    1  UNL1        0.1582
     27 H           7.0791    1.1674    0.0000 H       1  UNL1        0.0355
     28 H           7.4776    1.8577    0.0000 H       1  UNL1        0.0355
     29 H           6.5380    0.9400    0.0000 H       1  UNL1        0.0856
     30 H           8.2700    2.9400    0.0000 H       1  UNL1        0.0658
     31 H           5.4641    2.9400    0.0000 H       1  UNL1        0.0621
     32 H           5.4641    4.5600    0.0000 H       1  UNL1        0.0655
     33 H           5.6720   -1.5600    0.0000 H       1  UNL1        0.0689
     34 H           3.7320   -1.4400    0.0000 H       1  UNL1        0.0626
     35 H           2.8660   -2.9400    0.0000 H       1  UNL1        0.0661
     36 H           5.6720   -2.9400    0.0000 H       1  UNL1        0.0625
     37 H           5.6720   -4.5600    0.0000 H       1  UNL1        0.0655
     38 H           3.7320    1.5600    0.0000 H       1  UNL1        0.2952
     39 H           9.1360    4.4400    0.0000 H       1  UNL1        0.2923
     40 H           6.3301    6.0600    0.0000 H       1  UNL1        0.2923
     41 H           2.0000   -4.4400    0.0000 H       1  UNL1        0.2923
     42 H           4.8059   -6.0600    0.0000 H       1  UNL1        0.2923
@<TRIPOS>BOND
     1    10     1    1
     2     1    18    1
     3     2    14    1
     4     2    38    1
     5     3    15    1
     6     3    39    1
     7     4    17    1
     8     4    40    1
     9     5    14    2
    10     6    18    2
    11     7    24    1
    12     7    41    1
    13     8    26    1
    14     8    42    1
    15     9    10    1
    16     9    11    1
    17     9    27    1
    18     9    28    1
    19    10    14    1
    20    10    29    1
    21    11    12   ar
    22    11    13   ar
    23    12    15   ar
    24    12    30    1
    25    13    16   ar
    26    13    31    1
    27    15    17   ar
    28    16    17   ar
    29    16    32    1
    30    18    20    1
    31    19    21    1
    32    19    22   ar
    33    19    23   ar
    34    20    21    2
    35    20    33    1
    36    21    34    1
    37    22    24   ar
    38    22    35    1
    39    23    25   ar
    40    23    36    1
    41    24    26   ar
    42    25    26   ar
    43    25    37    1
