@<TRIPOS>MOLECULE
IMPHY012989
 69 72 0 0 0
SMALL
GASTEIGER

@<TRIPOS>ATOM
      1 O           8.5991   -0.5000    0.0000 O.3     1  UNL1       -0.3289
      2 O           6.8671   -2.5000    0.0000 O.3     1  UNL1       -0.4524
      3 O           8.5991   -3.5000    0.0000 O.3     1  UNL1       -0.3852
      4 O          10.3312   -2.5000    0.0000 O.3     1  UNL1       -0.3829
      5 O          10.3312   -0.5000    0.0000 O.3     1  UNL1       -0.4287
      6 O           6.8671    0.5000    0.0000 O.3     1  UNL1       -0.4584
      7 O           6.0010   -1.0000    0.0000 O.2     1  UNL1       -0.2449
      8 O           9.4651    1.0000    0.0000 O.2     1  UNL1       -0.2449
      9 O           5.1350    0.5000    0.0000 O.2     1  UNL1       -0.2450
     10 O           4.2690   -5.0000    0.0000 O.3     1  UNL1       -0.5032
     11 O           2.5369   -2.0000    0.0000 O.3     1  UNL1       -0.5032
     12 O           2.5369   -4.0000    0.0000 O.3     1  UNL1       -0.5009
     13 O          12.0632    3.5000    0.0000 O.3     1  UNL1       -0.5032
     14 O          13.7953    0.5000    0.0000 O.3     1  UNL1       -0.5032
     15 O          13.7953    2.5000    0.0000 O.3     1  UNL1       -0.5009
     16 O           4.2690    4.0000    0.0000 O.3     1  UNL1       -0.5032
     17 O           7.7331    4.0000    0.0000 O.3     1  UNL1       -0.5032
     18 O           6.0010    5.0000    0.0000 O.3     1  UNL1       -0.5009
     19 C           7.7331   -2.0000    0.0000 C.3     1  UNL1        0.1609
     20 C           8.5991   -2.5000    0.0000 C.3     1  UNL1        0.1262
     21 C           7.7331   -1.0000    0.0000 C.3     1  UNL1        0.1360
     22 C           9.4651   -2.0000    0.0000 C.3     1  UNL1        0.1466
     23 C           9.4651   -1.0000    0.0000 C.3     1  UNL1        0.2342
     24 C           6.8671   -0.5000    0.0000 C.3     1  UNL1        0.1226
     25 C           6.0010   -2.0000    0.0000 C.2     1  UNL1        0.3398
     26 C          10.3312    0.5000    0.0000 C.2     1  UNL1        0.3417
     27 C           5.1350   -2.5000    0.0000 C.ar    1  UNL1        0.0661
     28 C           6.0010    1.0000    0.0000 C.2     1  UNL1        0.3395
     29 C          11.1972    1.0000    0.0000 C.ar    1  UNL1        0.0662
     30 C           6.0010    2.0000    0.0000 C.ar    1  UNL1        0.0661
     31 C           4.2690   -2.0000    0.0000 C.ar    1  UNL1       -0.0023
     32 C           5.1350   -3.5000    0.0000 C.ar    1  UNL1       -0.0023
     33 C          12.0632    0.5000    0.0000 C.ar    1  UNL1       -0.0023
     34 C          11.1972    2.0000    0.0000 C.ar    1  UNL1       -0.0023
     35 C           4.2690   -4.0000    0.0000 C.ar    1  UNL1        0.1628
     36 C           3.4030   -2.5000    0.0000 C.ar    1  UNL1        0.1628
     37 C           6.8671    2.5000    0.0000 C.ar    1  UNL1       -0.0023
     38 C           5.1350    2.5000    0.0000 C.ar    1  UNL1       -0.0023
     39 C           3.4030   -3.5000    0.0000 C.ar    1  UNL1        0.2006
     40 C          12.0632    2.5000    0.0000 C.ar    1  UNL1        0.1628
     41 C          12.9292    1.0000    0.0000 C.ar    1  UNL1        0.1628
     42 C          12.9292    2.0000    0.0000 C.ar    1  UNL1        0.2006
     43 C           5.1350    3.5000    0.0000 C.ar    1  UNL1        0.1628
     44 C           6.8671    3.5000    0.0000 C.ar    1  UNL1        0.1628
     45 C           6.0010    4.0000    0.0000 C.ar    1  UNL1        0.2006
     46 H           7.7331   -2.6200    0.0000 H       1  UNL1        0.0789
     47 H           9.1360   -2.8100    0.0000 H       1  UNL1        0.0659
     48 H           7.7331   -0.3800    0.0000 H       1  UNL1        0.0670
     49 H           9.4651   -2.6200    0.0000 H       1  UNL1        0.0683
     50 H          10.0021   -1.3100    0.0000 H       1  UNL1        0.1085
     51 H           6.2565   -0.3923    0.0000 H       1  UNL1        0.0725
     52 H           6.6550   -1.0826    0.0000 H       1  UNL1        0.0725
     53 H           9.1360   -3.8100    0.0000 H       1  UNL1        0.2101
     54 H          10.8681   -2.1900    0.0000 H       1  UNL1        0.2102
     55 H           4.2690   -1.3800    0.0000 H       1  UNL1        0.0663
     56 H           5.6720   -3.8100    0.0000 H       1  UNL1        0.0663
     57 H          12.0632   -0.1200    0.0000 H       1  UNL1        0.0663
     58 H          10.6603    2.3100    0.0000 H       1  UNL1        0.0663
     59 H           7.4040    2.1900    0.0000 H       1  UNL1        0.0663
     60 H           4.5981    2.1900    0.0000 H       1  UNL1        0.0663
     61 H           4.8059   -5.3100    0.0000 H       1  UNL1        0.2923
     62 H           2.0000   -2.3100    0.0000 H       1  UNL1        0.2923
     63 H           2.5369   -4.6200    0.0000 H       1  UNL1        0.2924
     64 H          12.6002    3.8100    0.0000 H       1  UNL1        0.2923
     65 H          13.7953   -0.1200    0.0000 H       1  UNL1        0.2923
     66 H          14.3322    2.1900    0.0000 H       1  UNL1        0.2924
     67 H           3.7320    3.6900    0.0000 H       1  UNL1        0.2923
     68 H           7.7331    4.6200    0.0000 H       1  UNL1        0.2923
     69 H           5.4641    5.3100    0.0000 H       1  UNL1        0.2924
@<TRIPOS>BOND
     1     1    21    1
     2     1    23    1
     3    19     2    1
     4     2    25    1
     5    20     3    1
     6     3    53    1
     7    22     4    1
     8     4    54    1
     9    23     5    1
    10     5    26    1
    11     6    24    1
    12     6    28    1
    13     7    25    2
    14     8    26    2
    15     9    28    2
    16    10    35    1
    17    10    61    1
    18    11    36    1
    19    11    62    1
    20    12    39    1
    21    12    63    1
    22    13    40    1
    23    13    64    1
    24    14    41    1
    25    14    65    1
    26    15    42    1
    27    15    66    1
    28    16    43    1
    29    16    67    1
    30    17    44    1
    31    17    68    1
    32    18    45    1
    33    18    69    1
    34    19    20    1
    35    19    21    1
    36    19    46    1
    37    20    22    1
    38    20    47    1
    39    21    24    1
    40    21    48    1
    41    22    23    1
    42    22    49    1
    43    23    50    1
    44    24    51    1
    45    24    52    1
    46    25    27    1
    47    26    29    1
    48    27    31   ar
    49    27    32   ar
    50    28    30    1
    51    29    33   ar
    52    29    34   ar
    53    30    37   ar
    54    30    38   ar
    55    31    36   ar
    56    31    55    1
    57    32    35   ar
    58    32    56    1
    59    33    41   ar
    60    33    57    1
    61    34    40   ar
    62    34    58    1
    63    35    39   ar
    64    36    39   ar
    65    37    44   ar
    66    37    59    1
    67    38    43   ar
    68    38    60    1
    69    40    42   ar
    70    41    42   ar
    71    43    45   ar
    72    44    45   ar
