@<TRIPOS>MOLECULE
IMPHY009301
 71 75 0 0 0
SMALL
GASTEIGER

@<TRIPOS>ATOM
      1 O          12.0632   -2.3080    0.0000 O.3     1  UNL1       -0.3391
      2 O          10.3312   -2.3080    0.0000 O.3     1  UNL1       -0.3394
      3 O          12.8679    0.2756    0.0000 O.3     1  UNL1       -0.4816
      4 O          12.0632   -4.3080    0.0000 O.3     1  UNL1       -0.3841
      5 O          10.3312   -5.3080    0.0000 O.3     1  UNL1       -0.3864
      6 O           8.5991   -4.3080    0.0000 O.3     1  UNL1       -0.3864
      7 O           8.5991   -1.3080    0.0000 O.3     1  UNL1       -0.4589
      8 O          14.0632    2.0879    0.0000 O.3     1  UNL1       -0.5009
      9 O          13.0979    3.8478    0.0000 O.2     1  UNL1       -0.4183
     10 O           7.7331    0.1920    0.0000 O.2     1  UNL1       -0.2456
     11 O          13.0874    5.6180    0.0000 O.2     1  UNL1       -0.2452
     12 O           2.5369   -2.8080    0.0000 O.3     1  UNL1       -0.5068
     13 C          12.0632   -1.3080    0.0000 C.3     1  UNL1        0.1039
     14 C          12.0632   -0.3080    0.0000 C.3     1  UNL1        0.1328
     15 C          11.1972   -2.8080    0.0000 C.3     1  UNL1        0.1887
     16 C          11.1972   -3.8080    0.0000 C.3     1  UNL1        0.1341
     17 C          10.3312   -4.3080    0.0000 C.3     1  UNL1        0.1141
     18 C           9.4651   -3.8080    0.0000 C.3     1  UNL1        0.1129
     19 C           9.4651   -2.8080    0.0000 C.3     1  UNL1        0.1240
     20 C          11.2585    0.2756    0.0000 C.3     1  UNL1        0.0158
     21 C          13.0632   -1.3080    0.0000 C.3     1  UNL1       -0.0325
     22 C          11.0632   -1.3080    0.0000 C.3     1  UNL1       -0.0325
     23 C          11.5632    1.2218    0.0000 C.ar    1  UNL1        0.0023
     24 C          12.5632    1.2218    0.0000 C.ar    1  UNL1        0.1693
     25 C           8.5991   -2.3080    0.0000 C.3     1  UNL1        0.1215
     26 C          11.0632    2.0879    0.0000 C.ar    1  UNL1       -0.0441
     27 C          13.0632    2.0879    0.0000 C.ar    1  UNL1        0.2027
     28 C          11.5632    2.9539    0.0000 C.ar    1  UNL1        0.0218
     29 C          12.5632    2.9539    0.0000 C.ar    1  UNL1        0.1839
     30 C          11.0286    3.8478    0.0000 C.ar    1  UNL1       -0.0442
     31 C           7.7331   -0.8080    0.0000 C.2     1  UNL1        0.3320
     32 C          11.5424    4.7539    0.0000 C.ar    1  UNL1        0.0236
     33 C          12.5840    4.7539    0.0000 C.ar    1  UNL1        0.3373
     34 C           6.8671   -1.3080    0.0000 C.2     1  UNL1        0.0231
     35 C           6.0010   -0.8080    0.0000 C.2     1  UNL1       -0.0478
     36 C           5.1350   -1.3080    0.0000 C.ar    1  UNL1       -0.0246
     37 C           5.1350   -2.3080    0.0000 C.ar    1  UNL1       -0.0511
     38 C           4.2690   -0.8080    0.0000 C.ar    1  UNL1       -0.0511
     39 C           4.2690   -2.8080    0.0000 C.ar    1  UNL1       -0.0196
     40 C           3.4030   -1.3080    0.0000 C.ar    1  UNL1       -0.0196
     41 C           3.4030   -2.3080    0.0000 C.ar    1  UNL1        0.1169
     42 H          12.6155   -0.5897    0.0000 H       1  UNL1        0.0765
     43 H          11.7341   -3.1180    0.0000 H       1  UNL1        0.0938
     44 H          11.1972   -4.4280    0.0000 H       1  UNL1        0.0671
     45 H          10.8681   -4.6180    0.0000 H       1  UNL1        0.0648
     46 H           9.4651   -4.4280    0.0000 H       1  UNL1        0.0647
     47 H           9.4651   -2.1880    0.0000 H       1  UNL1        0.0658
     48 H          10.6916    0.5267    0.0000 H       1  UNL1        0.0351
     49 H          10.9493   -0.2618    0.0000 H       1  UNL1        0.0351
     50 H          11.0632   -0.6880    0.0000 H       1  UNL1        0.0258
     51 H          10.4432   -1.3080    0.0000 H       1  UNL1        0.0258
     52 H          11.0632   -1.9280    0.0000 H       1  UNL1        0.0258
     53 H          13.0632   -1.9280    0.0000 H       1  UNL1        0.0258
     54 H          13.6832   -1.3080    0.0000 H       1  UNL1        0.0258
     55 H          13.0632   -0.6880    0.0000 H       1  UNL1        0.0258
     56 H           7.9885   -2.2003    0.0000 H       1  UNL1        0.0725
     57 H           8.3871   -2.8906    0.0000 H       1  UNL1        0.0725
     58 H          10.4432    2.0879    0.0000 H       1  UNL1        0.0628
     59 H          12.6002   -3.9980    0.0000 H       1  UNL1        0.2101
     60 H           9.7942   -5.6180    0.0000 H       1  UNL1        0.2100
     61 H           8.0622   -3.9980    0.0000 H       1  UNL1        0.2100
     62 H          10.4086    3.8407    0.0000 H       1  UNL1        0.0627
     63 H          14.3732    2.6248    0.0000 H       1  UNL1        0.2924
     64 H          11.2303    5.2896    0.0000 H       1  UNL1        0.0689
     65 H           6.8671   -1.9280    0.0000 H       1  UNL1        0.0689
     66 H           6.0010   -0.1880    0.0000 H       1  UNL1        0.0626
     67 H           5.6720   -2.6180    0.0000 H       1  UNL1        0.0625
     68 H           4.2690   -0.1880    0.0000 H       1  UNL1        0.0625
     69 H           4.2690   -3.4280    0.0000 H       1  UNL1        0.0654
     70 H           2.8660   -0.9980    0.0000 H       1  UNL1        0.0654
     71 H           2.0000   -2.4980    0.0000 H       1  UNL1        0.2921
@<TRIPOS>BOND
     1     1    13    1
     2     1    15    1
     3     2    15    1
     4     2    19    1
     5     3    14    1
     6     3    24    1
     7     4    16    1
     8     4    59    1
     9     5    17    1
    10     5    60    1
    11     6    18    1
    12     6    61    1
    13     7    25    1
    14     7    31    1
    15     8    27    1
    16     8    63    1
    17     9    29   ar
    18     9    33   ar
    19    10    31    2
    20    11    33    2
    21    12    41    1
    22    12    71    1
    23    13    14    1
    24    13    21    1
    25    13    22    1
    26    14    20    1
    27    14    42    1
    28    15    16    1
    29    15    43    1
    30    16    17    1
    31    16    44    1
    32    17    18    1
    33    17    45    1
    34    18    19    1
    35    18    46    1
    36    19    25    1
    37    19    47    1
    38    20    23    1
    39    20    48    1
    40    20    49    1
    41    21    53    1
    42    21    54    1
    43    21    55    1
    44    22    50    1
    45    22    51    1
    46    22    52    1
    47    23    24   ar
    48    23    26   ar
    49    24    27   ar
    50    25    56    1
    51    25    57    1
    52    26    28   ar
    53    26    58    1
    54    27    29   ar
    55    28    29   ar
    56    28    30   ar
    57    30    32   ar
    58    30    62    1
    59    31    34    1
    60    32    33   ar
    61    32    64    1
    62    34    35    2
    63    34    65    1
    64    35    36    1
    65    35    66    1
    66    36    37   ar
    67    36    38   ar
    68    37    39   ar
    69    37    67    1
    70    38    40   ar
    71    38    68    1
    72    39    41   ar
    73    39    69    1
    74    40    41   ar
    75    40    70    1
