@<TRIPOS>MOLECULE
IMPHY016779
 53 52 0 0 0
SMALL
GASTEIGER

@<TRIPOS>ATOM
      1 O           8.9282    0.7500    0.0000 O.3     1  UNL1       -0.4646
      2 O           8.0622   -0.7500    0.0000 O.2     1  UNL1       -0.2509
      3 C          13.2583    0.2500    0.0000 C.3     1  UNL1       -0.0531
      4 C          12.3923    0.7500    0.0000 C.3     1  UNL1       -0.0530
      5 C          14.1244    0.7500    0.0000 C.3     1  UNL1       -0.0531
      6 C          11.5263    0.2500    0.0000 C.3     1  UNL1       -0.0500
      7 C          14.9904    0.2500    0.0000 C.3     1  UNL1       -0.0533
      8 C          10.6603    0.7500    0.0000 C.3     1  UNL1       -0.0185
      9 C           5.4641    0.7500    0.0000 C.3     1  UNL1       -0.0526
     10 C           4.5981    0.2500    0.0000 C.3     1  UNL1       -0.0531
     11 C           6.3301    0.2500    0.0000 C.3     1  UNL1       -0.0430
     12 C           3.7320    0.7500    0.0000 C.3     1  UNL1       -0.0533
     13 C          15.8564    0.7500    0.0000 C.3     1  UNL1       -0.0559
     14 C           9.7942    0.2500    0.0000 C.3     1  UNL1        0.0925
     15 C           7.1962    0.7500    0.0000 C.3     1  UNL1        0.0449
     16 C           2.8660    0.2500    0.0000 C.3     1  UNL1       -0.0559
     17 C           8.0622    0.2500    0.0000 C.2     1  UNL1        0.3071
     18 C          16.7224    0.2500    0.0000 C.3     1  UNL1       -0.0653
     19 C           2.0000    0.7500    0.0000 C.3     1  UNL1       -0.0653
     20 H          12.8598   -0.2249    0.0000 H       1  UNL1        0.0265
     21 H          13.6569   -0.2249    0.0000 H       1  UNL1        0.0265
     22 H          12.7908    1.2250    0.0000 H       1  UNL1        0.0265
     23 H          11.9938    1.2250    0.0000 H       1  UNL1        0.0265
     24 H          14.5229    1.2250    0.0000 H       1  UNL1        0.0265
     25 H          13.7258    1.2250    0.0000 H       1  UNL1        0.0265
     26 H          11.1278   -0.2249    0.0000 H       1  UNL1        0.0266
     27 H          11.9248   -0.2249    0.0000 H       1  UNL1        0.0266
     28 H          14.5919   -0.2249    0.0000 H       1  UNL1        0.0265
     29 H          15.3889   -0.2249    0.0000 H       1  UNL1        0.0265
     30 H          11.0588    1.2250    0.0000 H       1  UNL1        0.0298
     31 H          10.2617    1.2250    0.0000 H       1  UNL1        0.0298
     32 H           5.8626    1.2250    0.0000 H       1  UNL1        0.0265
     33 H           5.0656    1.2250    0.0000 H       1  UNL1        0.0265
     34 H           4.1996   -0.2249    0.0000 H       1  UNL1        0.0265
     35 H           4.9966   -0.2249    0.0000 H       1  UNL1        0.0265
     36 H           5.9316   -0.2249    0.0000 H       1  UNL1        0.0270
     37 H           6.7287   -0.2249    0.0000 H       1  UNL1        0.0270
     38 H           4.1306    1.2250    0.0000 H       1  UNL1        0.0265
     39 H           3.3335    1.2250    0.0000 H       1  UNL1        0.0265
     40 H          16.2549    1.2250    0.0000 H       1  UNL1        0.0263
     41 H          15.4579    1.2250    0.0000 H       1  UNL1        0.0263
     42 H           9.3957   -0.2249    0.0000 H       1  UNL1        0.0697
     43 H          10.1928   -0.2249    0.0000 H       1  UNL1        0.0697
     44 H           7.5947    1.2250    0.0000 H       1  UNL1        0.0377
     45 H           6.7976    1.2250    0.0000 H       1  UNL1        0.0377
     46 H           2.4675   -0.2249    0.0000 H       1  UNL1        0.0263
     47 H           3.2646   -0.2249    0.0000 H       1  UNL1        0.0263
     48 H          16.4124   -0.2869    0.0000 H       1  UNL1        0.0230
     49 H          17.2594   -0.0600    0.0000 H       1  UNL1        0.0230
     50 H          17.0324    0.7869    0.0000 H       1  UNL1        0.0230
     51 H           2.3100    1.2869    0.0000 H       1  UNL1        0.0230
     52 H           1.4631    1.0600    0.0000 H       1  UNL1        0.0230
     53 H           1.6900    0.2131    0.0000 H       1  UNL1        0.0230
@<TRIPOS>BOND
     1     1    14    1
     2     1    17    1
     3     2    17    2
     4     3     4    1
     5     3     5    1
     6     3    20    1
     7     3    21    1
     8     4     6    1
     9     4    22    1
    10     4    23    1
    11     5     7    1
    12     5    24    1
    13     5    25    1
    14     6     8    1
    15     6    26    1
    16     6    27    1
    17     7    13    1
    18     7    28    1
    19     7    29    1
    20     8    14    1
    21     8    30    1
    22     8    31    1
    23     9    10    1
    24     9    11    1
    25     9    32    1
    26     9    33    1
    27    10    12    1
    28    10    34    1
    29    10    35    1
    30    11    15    1
    31    11    36    1
    32    11    37    1
    33    12    16    1
    34    12    38    1
    35    12    39    1
    36    13    18    1
    37    13    40    1
    38    13    41    1
    39    14    42    1
    40    14    43    1
    41    15    17    1
    42    15    44    1
    43    15    45    1
    44    16    19    1
    45    16    46    1
    46    16    47    1
    47    18    48    1
    48    18    49    1
    49    18    50    1
    50    19    51    1
    51    19    52    1
    52    19    53    1
