@<TRIPOS>MOLECULE
IMPHY014442
 33 36 0 0 0
SMALL
GASTEIGER

@<TRIPOS>ATOM
      1 O           4.4026    0.4502    0.0000 O.3     1  UNL1       -0.4176
      2 O           4.6783   -2.9198    0.0000 O.3     1  UNL1       -0.4216
      3 O           6.7485   -0.6416    0.0000 O.2     1  UNL1       -0.5027
      4 O           6.2619   -2.1150    0.0000 O.2     1  UNL1       -0.2444
      5 O           4.6844    2.2098    0.0000 O.2     1  UNL1       -0.2444
      6 C           4.6783   -1.3103    0.0000 C.2     1  UNL1        0.1159
      7 C           3.7320   -1.6151    0.0000 C.ar    1  UNL1        0.0351
      8 C           4.9889   -0.3598    0.0000 C.2     1  UNL1        0.1886
      9 C           5.9422    0.9476    0.0000 C.2     1  UNL1        0.1115
     10 C           5.9405   -0.0524    0.0000 C.2     1  UNL1        0.1749
     11 C           3.7320   -2.6150    0.0000 C.ar    1  UNL1        0.1400
     12 C           5.2619   -2.1150    0.0000 C.2     1  UNL1        0.3489
     13 C           6.7523    1.5340    0.0000 C.ar    1  UNL1       -0.0074
     14 C           2.8660   -1.1151    0.0000 C.ar    1  UNL1       -0.0502
     15 C           4.9917    1.2582    0.0000 C.2     1  UNL1        0.3488
     16 C           2.8660   -3.1150    0.0000 C.ar    1  UNL1       -0.0186
     17 C           2.0000   -1.6151    0.0000 C.ar    1  UNL1       -0.0610
     18 C           2.0000   -2.6150    0.0000 C.ar    1  UNL1       -0.0582
     19 C           7.6651    1.1256    0.0000 C.ar    1  UNL1       -0.0537
     20 C           6.6495    2.5287    0.0000 C.ar    1  UNL1       -0.0537
     21 C           8.4752    1.7120    0.0000 C.ar    1  UNL1       -0.0612
     22 C           7.4595    3.1150    0.0000 C.ar    1  UNL1       -0.0612
     23 C           8.3724    2.7067    0.0000 C.ar    1  UNL1       -0.0617
     24 H           2.8660   -0.4950    0.0000 H       1  UNL1        0.0625
     25 H           2.8660   -3.7350    0.0000 H       1  UNL1        0.0654
     26 H           1.4631   -1.3050    0.0000 H       1  UNL1        0.0618
     27 H           1.4631   -2.9250    0.0000 H       1  UNL1        0.0619
     28 H           7.7289    0.5089    0.0000 H       1  UNL1        0.0624
     29 H           6.0835    2.7818    0.0000 H       1  UNL1        0.0624
     30 H           9.0411    1.4589    0.0000 H       1  UNL1        0.0618
     31 H           7.3958    3.7318    0.0000 H       1  UNL1        0.0618
     32 H           7.3154   -0.3904    0.0000 H       1  UNL1        0.2923
     33 H           8.8746    3.0703    0.0000 H       1  UNL1        0.0618
@<TRIPOS>BOND
     1     1     8    1
     2     1    15    1
     3     2    11    1
     4     2    12    1
     5     3    10    1
     6     3    32    1
     7     4    12    2
     8     5    15    2
     9     6     7    1
    10     6     8    2
    11     6    12    1
    12     7    11   ar
    13     7    14   ar
    14     8    10    1
    15     9    10    2
    16     9    13    1
    17     9    15    1
    18    11    16   ar
    19    13    19   ar
    20    13    20   ar
    21    14    17   ar
    22    14    24    1
    23    16    18   ar
    24    16    25    1
    25    17    18   ar
    26    17    26    1
    27    18    27    1
    28    19    21   ar
    29    19    28    1
    30    20    22   ar
    31    20    29    1
    32    21    23   ar
    33    21    30    1
    34    22    23   ar
    35    22    31    1
    36    23    33    1
