@<TRIPOS>MOLECULE
IMPHY001932
 31 34 0 0 0
SMALL
GASTEIGER

@<TRIPOS>ATOM
      1 O           4.6051   -1.3544    0.0000 O.3     1  UNL1       -0.4488
      2 O           3.2888    1.7246    0.0000 O.3     1  UNL1       -0.3901
      3 O           6.0938   -2.3234    0.0000 O.2     1  UNL1       -0.2456
      4 N           3.5298    1.1175    0.0000 N.3     1  UNL1       -0.2896
      5 C           4.3958   -0.3825    0.0000 C.3     1  UNL1        0.1531
      6 C           3.5298    0.1175    0.0000 C.3     1  UNL1        0.0547
      7 C           4.3958    1.6175    0.0000 C.3     1  UNL1        0.0407
      8 C           3.9958    0.2175    0.0000 C.3     1  UNL1        0.0202
      9 C           3.9958    1.0175    0.0000 C.3     1  UNL1        0.0750
     10 C           5.2619    0.1175    0.0000 C.2     1  UNL1       -0.0167
     11 C           5.2619    1.1175    0.0000 C.3     1  UNL1       -0.0094
     12 C           2.5836   -0.1873    0.0000 C.3     1  UNL1       -0.0321
     13 C           2.5836    1.4222    0.0000 C.3     1  UNL1       -0.0002
     14 C           2.0000    0.6175    0.0000 C.3     1  UNL1       -0.0386
     15 C           5.9989   -0.5496    0.0000 C.2     1  UNL1        0.0256
     16 C           5.5938   -1.4574    0.0000 C.2     1  UNL1        0.3329
     17 H           3.5298   -0.7325    0.0000 H       1  UNL1        0.0505
     18 H           4.3958    2.4675    0.0000 H       1  UNL1        0.0491
     19 H           3.4088    0.4170    0.0000 H       1  UNL1        0.0333
     20 H           4.5892    0.3971    0.0000 H       1  UNL1        0.0333
     21 H           3.4230    0.7802    0.0000 H       1  UNL1        0.0610
     22 H           5.8725    1.0098    0.0000 H       1  UNL1        0.0327
     23 H           5.4739    1.7001    0.0000 H       1  UNL1        0.0327
     24 H           2.0462   -0.4965    0.0000 H       1  UNL1        0.0282
     25 H           2.8346   -0.7542    0.0000 H       1  UNL1        0.0282
     26 H           2.8346    1.9891    0.0000 H       1  UNL1        0.0427
     27 H           2.0462    1.7314    0.0000 H       1  UNL1        0.0427
     28 H           1.5391    1.0322    0.0000 H       1  UNL1        0.0278
     29 H           1.5391    0.2027    0.0000 H       1  UNL1        0.0278
     30 H           6.6056   -0.4218    0.0000 H       1  UNL1        0.0690
     31 H           3.4492    2.3234    0.0000 H       1  UNL1        0.2098
@<TRIPOS>BOND
     1     5     1    1
     2     1    16    1
     3     9     2    1
     4     2    31    1
     5     3    16    2
     6     4     6    1
     7     4     7    1
     8     4    13    1
     9     5     6    1
    10     5     8    1
    11     5    10    1
    12     6    12    1
    13     6    17    1
    14     7     9    1
    15     7    11    1
    16     7    18    1
    17     8     9    1
    18     8    19    1
    19     8    20    1
    20     9    21    1
    21    10    11    1
    22    10    15    2
    23    11    22    1
    24    11    23    1
    25    12    14    1
    26    12    24    1
    27    12    25    1
    28    13    14    1
    29    13    26    1
    30    13    27    1
    31    14    28    1
    32    14    29    1
    33    15    16    1
    34    15    30    1
