@<TRIPOS>MOLECULE
IMPHY000885
 38 40 0 0 0
SMALL
GASTEIGER

@<TRIPOS>ATOM
      1 O           6.3981   -0.1754    0.0000 O.2     1  UNL1       -0.1997
      2 O           8.1301    1.8246    0.0000 O.3     1  UNL1       -0.4995
      3 O           2.8680   -0.1995    0.0000 O.3     1  UNL1       -0.4947
      4 O           4.6497    2.8592    0.0000 O.3     1  UNL1       -0.5057
      5 O           8.9962   -2.6754    0.0000 O.3     1  UNL1       -0.4914
      6 O          10.7282   -1.6754    0.0000 O.3     1  UNL1       -0.5033
      7 C           5.5320    1.3246    0.0000 C.ar    1  UNL1        0.1241
      8 C           5.5320    0.3246    0.0000 C.ar    1  UNL1        0.3708
      9 C           7.2641    0.3246    0.0000 C.ar    1  UNL1        0.4043
     10 C           8.1301   -0.1754    0.0000 C.ar    1  UNL1        0.0865
     11 C           7.2641    1.3246    0.0000 C.ar    1  UNL1        0.2238
     12 C           6.3981    1.8246    0.0000 C.ar    1  UNL1        0.0090
     13 C           4.6381    1.8593    0.0000 C.ar    1  UNL1        0.1366
     14 C           4.6381   -0.2101    0.0000 C.ar    1  UNL1        0.0849
     15 C           3.7320    0.3038    0.0000 C.ar    1  UNL1        0.1325
     16 C           8.1301   -1.1754    0.0000 C.ar    1  UNL1       -0.0001
     17 C           3.7320    1.3454    0.0000 C.ar    1  UNL1        0.0227
     18 C           8.9962    0.3246    0.0000 C.ar    1  UNL1       -0.0418
     19 C           8.9962   -1.6754    0.0000 C.ar    1  UNL1        0.1621
     20 C           9.8622   -0.1754    0.0000 C.ar    1  UNL1       -0.0157
     21 C           9.8622   -1.1754    0.0000 C.ar    1  UNL1        0.1585
     22 C           2.0000    0.2971    0.0000 C.3     1  UNL1        0.0788
     23 C           8.1301   -3.1754    0.0000 C.3     1  UNL1        0.0790
     24 H           6.3981    2.4446    0.0000 H       1  UNL1        0.0667
     25 H           4.6453   -0.8300    0.0000 H       1  UNL1        0.0749
     26 H           7.5932   -1.4854    0.0000 H       1  UNL1        0.0664
     27 H           3.1963    1.6575    0.0000 H       1  UNL1        0.0691
     28 H           8.9962    0.9446    0.0000 H       1  UNL1        0.0628
     29 H          10.3991    0.1346    0.0000 H       1  UNL1        0.0655
     30 H           8.1301    2.4446    0.0000 H       1  UNL1        0.2925
     31 H           4.1164    3.1754    0.0000 H       1  UNL1        0.2922
     32 H           2.3079    0.8352    0.0000 H       1  UNL1        0.0660
     33 H           1.4619    0.6050    0.0000 H       1  UNL1        0.0660
     34 H           1.6921   -0.2410    0.0000 H       1  UNL1        0.0660
     35 H          11.2651   -1.3654    0.0000 H       1  UNL1        0.2923
     36 H           7.8201   -2.6385    0.0000 H       1  UNL1        0.0660
     37 H           7.5932   -3.4854    0.0000 H       1  UNL1        0.0660
     38 H           8.4401   -3.7123    0.0000 H       1  UNL1        0.0660
@<TRIPOS>UNITY_ATOM_ATTR
1 1
charge 1
@<TRIPOS>BOND
     1     1     8   ar
     2     1     9   ar
     3     2    11    1
     4     2    30    1
     5     3    15    1
     6     3    22    1
     7     4    13    1
     8     4    31    1
     9     5    19    1
    10     5    23    1
    11     6    21    1
    12     6    35    1
    13     7     8   ar
    14     7    12   ar
    15     7    13   ar
    16     8    14   ar
    17     9    10    1
    18     9    11   ar
    19    10    16   ar
    20    10    18   ar
    21    11    12   ar
    22    12    24    1
    23    13    17   ar
    24    14    15   ar
    25    14    25    1
    26    15    17   ar
    27    16    19   ar
    28    16    26    1
    29    17    27    1
    30    18    20   ar
    31    18    28    1
    32    19    21   ar
    33    20    21   ar
    34    20    29    1
    35    22    32    1
    36    22    33    1
    37    22    34    1
    38    23    36    1
    39    23    37    1
    40    23    38    1
