@<TRIPOS>MOLECULE
IMPHY006223
 48 49 0 0 0
SMALL
GASTEIGER

@<TRIPOS>ATOM
      1 O           4.2690   -1.3450    0.0000 O.3     1  UNL1       -0.3313
      2 O           4.2690   -4.3450    0.0000 O.3     1  UNL1       -0.3864
      3 O           2.5369   -3.3450    0.0000 O.3     1  UNL1       -0.3865
      4 O           6.0010   -1.3450    0.0000 O.3     1  UNL1       -0.4607
      5 O           6.0010   -3.3450    0.0000 O.3     1  UNL1       -0.3829
      6 O           2.5369   -0.3450    0.0000 O.3     1  UNL1       -0.3924
      7 O           7.7331    1.6550    0.0000 O.3     1  UNL1       -0.4950
      8 O           3.4030    4.1550    0.0000 O.3     1  UNL1       -0.4649
      9 O           2.5369    2.6550    0.0000 O.2     1  UNL1       -0.2456
     10 C           4.2690   -3.3450    0.0000 C.3     1  UNL1        0.1152
     11 C           3.4030   -2.8450    0.0000 C.3     1  UNL1        0.1120
     12 C           3.4030   -1.8450    0.0000 C.3     1  UNL1        0.1140
     13 C           5.1350   -2.8450    0.0000 C.3     1  UNL1        0.1454
     14 C           5.1350   -1.8450    0.0000 C.3     1  UNL1        0.2308
     15 C           2.5369   -1.3450    0.0000 C.3     1  UNL1        0.0731
     16 C           6.0010   -0.3450    0.0000 C.ar    1  UNL1        0.1280
     17 C           5.1350    0.1550    0.0000 C.ar    1  UNL1       -0.0124
     18 C           6.8671    0.1550    0.0000 C.ar    1  UNL1        0.0219
     19 C           5.1350    1.1550    0.0000 C.ar    1  UNL1       -0.0179
     20 C           6.8671    1.1550    0.0000 C.ar    1  UNL1        0.1241
     21 C           6.0010    1.6550    0.0000 C.ar    1  UNL1       -0.0126
     22 C           4.2690    1.6550    0.0000 C.2     1  UNL1       -0.0476
     23 C           4.2690    2.6550    0.0000 C.2     1  UNL1        0.0230
     24 C           7.7331    2.6550    0.0000 C.3     1  UNL1        0.0788
     25 C           3.4030    3.1550    0.0000 C.2     1  UNL1        0.3317
     26 C           2.5369    4.6550    0.0000 C.3     1  UNL1        0.0820
     27 H           4.8059   -3.6550    0.0000 H       1  UNL1        0.0648
     28 H           3.4030   -3.4650    0.0000 H       1  UNL1        0.0647
     29 H           5.6720   -2.5350    0.0000 H       1  UNL1        0.0683
     30 H           3.4030   -1.2250    0.0000 H       1  UNL1        0.0647
     31 H           5.1350   -1.2250    0.0000 H       1  UNL1        0.1084
     32 H           1.9264   -1.2373    0.0000 H       1  UNL1        0.0584
     33 H           2.3249   -1.9276    0.0000 H       1  UNL1        0.0584
     34 H           3.7320   -4.6550    0.0000 H       1  UNL1        0.2100
     35 H           2.0000   -3.0350    0.0000 H       1  UNL1        0.2100
     36 H           6.5380   -3.0350    0.0000 H       1  UNL1        0.2102
     37 H           2.0000   -0.0350    0.0000 H       1  UNL1        0.2095
     38 H           4.5981   -0.1550    0.0000 H       1  UNL1        0.0660
     39 H           7.4040   -0.1550    0.0000 H       1  UNL1        0.0691
     40 H           6.0010    2.2750    0.0000 H       1  UNL1        0.0660
     41 H           3.7320    1.3450    0.0000 H       1  UNL1        0.0626
     42 H           4.8059    2.9650    0.0000 H       1  UNL1        0.0689
     43 H           8.3531    2.6550    0.0000 H       1  UNL1        0.0660
     44 H           7.7331    3.2750    0.0000 H       1  UNL1        0.0660
     45 H           7.1131    2.6550    0.0000 H       1  UNL1        0.0660
     46 H           2.8469    5.1919    0.0000 H       1  UNL1        0.0661
     47 H           2.0000    4.9650    0.0000 H       1  UNL1        0.0661
     48 H           2.2269    4.1181    0.0000 H       1  UNL1        0.0661
@<TRIPOS>BOND
     1     1    12    1
     2     1    14    1
     3    10     2    1
     4     2    34    1
     5    11     3    1
     6     3    35    1
     7    14     4    1
     8     4    16    1
     9    13     5    1
    10     5    36    1
    11     6    15    1
    12     6    37    1
    13     7    20    1
    14     7    24    1
    15     8    25    1
    16     8    26    1
    17     9    25    2
    18    10    11    1
    19    10    13    1
    20    10    27    1
    21    11    12    1
    22    11    28    1
    23    12    15    1
    24    12    30    1
    25    13    14    1
    26    13    29    1
    27    14    31    1
    28    15    32    1
    29    15    33    1
    30    16    17   ar
    31    16    18   ar
    32    17    19   ar
    33    17    38    1
    34    18    20   ar
    35    18    39    1
    36    19    21   ar
    37    19    22    1
    38    20    21   ar
    39    21    40    1
    40    22    23    2
    41    22    41    1
    42    23    25    1
    43    23    42    1
    44    24    43    1
    45    24    44    1
    46    24    45    1
    47    26    46    1
    48    26    47    1
    49    26    48    1
