@<TRIPOS>MOLECULE
IMPHY015922
 98 103 0 0 0
SMALL
GASTEIGER

@<TRIPOS>ATOM
      1 O          10.4037   -0.3450    0.0000 O.3     1  UNL1       -0.3313
      2 O           7.8056   -2.8450    0.0000 O.3     1  UNL1       -0.3405
      3 O           9.5376   -2.8450    0.0000 O.3     1  UNL1       -0.3460
      4 O          11.2697   -2.8450    0.0000 O.3     1  UNL1       -0.3865
      5 O          11.2697    1.1550    0.0000 O.3     1  UNL1       -0.4532
      6 O          13.0017   -1.8450    0.0000 O.3     1  UNL1       -0.3864
      7 O          13.0017    0.1550    0.0000 O.3     1  UNL1       -0.3829
      8 O           9.5376   -4.8450    0.0000 O.3     1  UNL1       -0.3841
      9 O           4.2755    3.1858    0.0000 O.3     1  UNL1       -0.3313
     10 O           7.8056   -5.8450    0.0000 O.3     1  UNL1       -0.3864
     11 O           6.0736   -4.8450    0.0000 O.3     1  UNL1       -0.3865
     12 O           6.0075    3.1792    0.0000 O.3     1  UNL1       -0.4606
     13 O           4.2639    0.1858    0.0000 O.3     1  UNL1       -0.3864
     14 O           2.5357    1.1925    0.0000 O.3     1  UNL1       -0.3865
     15 O           5.9998    1.1792    0.0000 O.3     1  UNL1       -0.3829
     16 O           6.0736   -1.8450    0.0000 O.3     1  UNL1       -0.3924
     17 O           2.5473    4.1925    0.0000 O.3     1  UNL1       -0.3924
     18 O           9.5376    3.1550    0.0000 O.2     1  UNL1       -0.4507
     19 O           9.5376    0.1550    0.0000 O.2     1  UNL1       -0.2830
     20 O           7.7892    0.1204    0.0000 O.3     1  UNL1       -0.5058
     21 O          12.1357    5.6550    0.0000 O.3     1  UNL1       -0.4914
     22 O          13.8678    4.6550    0.0000 O.3     1  UNL1       -0.5033
     23 C          10.4037   -1.3450    0.0000 C.3     1  UNL1        0.1144
     24 C          11.2697   -1.8450    0.0000 C.3     1  UNL1        0.1120
     25 C          12.1357   -1.3450    0.0000 C.3     1  UNL1        0.1152
     26 C          12.1357   -0.3450    0.0000 C.3     1  UNL1        0.1454
     27 C           8.6716   -4.3450    0.0000 C.3     1  UNL1        0.1341
     28 C           8.6716   -3.3450    0.0000 C.3     1  UNL1        0.1880
     29 C           7.8056   -4.8450    0.0000 C.3     1  UNL1        0.1141
     30 C           6.9396   -4.3450    0.0000 C.3     1  UNL1        0.1119
     31 C           6.9396   -3.3450    0.0000 C.3     1  UNL1        0.1130
     32 C          11.2697    0.1550    0.0000 C.3     1  UNL1        0.2311
     33 C           9.5376   -1.8450    0.0000 C.3     1  UNL1        0.0796
     34 C           4.2678    1.1858    0.0000 C.3     1  UNL1        0.1152
     35 C           3.4037    1.6892    0.0000 C.3     1  UNL1        0.1120
     36 C           5.1357    1.6825    0.0000 C.3     1  UNL1        0.1454
     37 C           3.4075    2.6892    0.0000 C.3     1  UNL1        0.1140
     38 C           6.0736   -2.8450    0.0000 C.3     1  UNL1        0.0730
     39 C           5.1396    2.6825    0.0000 C.3     1  UNL1        0.2308
     40 C           2.5434    3.1925    0.0000 C.3     1  UNL1        0.0731
     41 C          10.4037    1.6550    0.0000 C.ar    1  UNL1        0.2138
     42 C          10.4037    2.6550    0.0000 C.ar    1  UNL1        0.1810
     43 C           9.5376    1.1550    0.0000 C.ar    1  UNL1        0.2382
     44 C           6.8716    2.6758    0.0000 C.ar    1  UNL1        0.1310
     45 C           8.6716    1.6550    0.0000 C.ar    1  UNL1        0.1092
     46 C           8.6716    2.6550    0.0000 C.ar    1  UNL1        0.1465
     47 C           7.7777    3.1897    0.0000 C.ar    1  UNL1        0.0235
     48 C           6.8716    1.6342    0.0000 C.ar    1  UNL1        0.0226
     49 C           7.7777    1.1203    0.0000 C.ar    1  UNL1        0.1348
     50 C          11.2697    3.1550    0.0000 C.ar    1  UNL1        0.0247
     51 C          11.2697    4.1550    0.0000 C.ar    1  UNL1       -0.0055
     52 C          12.1357    2.6550    0.0000 C.ar    1  UNL1       -0.0473
     53 C          12.1357    4.6550    0.0000 C.ar    1  UNL1        0.1619
     54 C          13.0017    3.1550    0.0000 C.ar    1  UNL1       -0.0159
     55 C          13.0017    4.1550    0.0000 C.ar    1  UNL1        0.1585
     56 C          11.2697    6.1550    0.0000 C.3     1  UNL1        0.0790
     57 H           9.8667   -1.0350    0.0000 H       1  UNL1        0.0647
     58 H          10.7328   -2.1550    0.0000 H       1  UNL1        0.0647
     59 H          12.1357   -1.9650    0.0000 H       1  UNL1        0.0648
     60 H          12.6727   -0.6550    0.0000 H       1  UNL1        0.0683
     61 H           9.2086   -4.0350    0.0000 H       1  UNL1        0.0671
     62 H           8.6716   -2.7250    0.0000 H       1  UNL1        0.0937
     63 H           8.3425   -5.1550    0.0000 H       1  UNL1        0.0648
     64 H           6.4026   -4.0350    0.0000 H       1  UNL1        0.0647
     65 H           6.9396   -2.7250    0.0000 H       1  UNL1        0.0647
     66 H          10.7328    0.4650    0.0000 H       1  UNL1        0.1084
     67 H           9.3256   -1.2624    0.0000 H       1  UNL1        0.0587
     68 H           8.9271   -1.9527    0.0000 H       1  UNL1        0.0587
     69 H           4.8035    0.8738    0.0000 H       1  UNL1        0.0648
     70 H           3.4013    1.0692    0.0000 H       1  UNL1        0.0647
     71 H           5.6738    1.9904    0.0000 H       1  UNL1        0.0683
     72 H           3.4099    3.3092    0.0000 H       1  UNL1        0.0647
     73 H           5.4630   -2.7373    0.0000 H       1  UNL1        0.0584
     74 H           5.8615   -3.4276    0.0000 H       1  UNL1        0.0584
     75 H           5.1420    3.3025    0.0000 H       1  UNL1        0.1084
     76 H          11.8066   -3.1550    0.0000 H       1  UNL1        0.2100
     77 H          13.5387   -1.5350    0.0000 H       1  UNL1        0.2100
     78 H          13.0017    0.7750    0.0000 H       1  UNL1        0.2102
     79 H          10.0746   -4.5350    0.0000 H       1  UNL1        0.2101
     80 H           7.2687   -6.1550    0.0000 H       1  UNL1        0.2100
     81 H           5.5366   -4.5350    0.0000 H       1  UNL1        0.2100
     82 H           1.9333    3.3025    0.0000 H       1  UNL1        0.0584
     83 H           2.3292    2.6107    0.0000 H       1  UNL1        0.0584
     84 H           3.7258   -0.1221    0.0000 H       1  UNL1        0.2100
     85 H           2.0000    1.5046    0.0000 H       1  UNL1        0.2100
     86 H           5.9974    0.5592    0.0000 H       1  UNL1        0.2102
     87 H           5.5366   -1.5350    0.0000 H       1  UNL1        0.2095
     88 H           7.7848    3.8096    0.0000 H       1  UNL1        0.0691
     89 H           6.3359    1.3221    0.0000 H       1  UNL1        0.0691
     90 H           2.0116    4.5046    0.0000 H       1  UNL1        0.2095
     91 H          10.7328    4.4650    0.0000 H       1  UNL1        0.0662
     92 H          12.1357    2.0350    0.0000 H       1  UNL1        0.0626
     93 H           7.2559   -0.1958    0.0000 H       1  UNL1        0.2922
     94 H          13.5387    2.8450    0.0000 H       1  UNL1        0.0655
     95 H          14.4047    4.3450    0.0000 H       1  UNL1        0.2923
     96 H          11.5797    6.6919    0.0000 H       1  UNL1        0.0660
     97 H          10.7328    6.4650    0.0000 H       1  UNL1        0.0660
     98 H          10.9597    5.6181    0.0000 H       1  UNL1        0.0660
@<TRIPOS>BOND
     1     1    23    1
     2     1    32    1
     3     2    28    1
     4     2    31    1
     5    28     3    1
     6     3    33    1
     7    24     4    1
     8     4    76    1
     9    32     5    1
    10     5    41    1
    11     6    25    1
    12     6    77    1
    13     7    26    1
    14     7    78    1
    15     8    27    1
    16     8    79    1
    17     9    37    1
    18     9    39    1
    19    29    10    1
    20    10    80    1
    21    30    11    1
    22    11    81    1
    23    39    12    1
    24    12    44    1
    25    34    13    1
    26    13    84    1
    27    35    14    1
    28    14    85    1
    29    15    36    1
    30    15    86    1
    31    16    38    1
    32    16    87    1
    33    17    40    1
    34    17    90    1
    35    18    42   ar
    36    18    46   ar
    37    19    43    2
    38    20    49    1
    39    20    93    1
    40    21    53    1
    41    21    56    1
    42    22    55    1
    43    22    95    1
    44    23    24    1
    45    23    33    1
    46    23    57    1
    47    24    25    1
    48    24    58    1
    49    25    26    1
    50    25    59    1
    51    26    32    1
    52    26    60    1
    53    27    28    1
    54    27    29    1
    55    27    61    1
    56    28    62    1
    57    29    30    1
    58    29    63    1
    59    30    31    1
    60    30    64    1
    61    31    38    1
    62    31    65    1
    63    32    66    1
    64    33    67    1
    65    33    68    1
    66    34    35    1
    67    34    36    1
    68    34    69    1
    69    35    37    1
    70    35    70    1
    71    36    39    1
    72    36    71    1
    73    37    40    1
    74    37    72    1
    75    38    73    1
    76    38    74    1
    77    39    75    1
    78    40    82    1
    79    40    83    1
    80    41    42   ar
    81    41    43   ar
    82    42    50    1
    83    43    45   ar
    84    44    47   ar
    85    44    48   ar
    86    45    46   ar
    87    45    49   ar
    88    46    47   ar
    89    47    88    1
    90    48    49   ar
    91    48    89    1
    92    50    51   ar
    93    50    52   ar
    94    51    53   ar
    95    51    91    1
    96    52    54   ar
    97    52    92    1
    98    53    55   ar
    99    54    55   ar
   100    54    94    1
   101    56    96    1
   102    56    97    1
   103    56    98    1
