@<TRIPOS>MOLECULE
IMPHY010497
 97 102 0 0 0
SMALL
GASTEIGER

@<TRIPOS>ATOM
      1 O           9.9650    0.3165    0.0000 O.3     1  UNL1       -0.3585
      2 O           7.8363    2.3083    0.0000 O.3     1  UNL1       -0.4581
      3 O           9.5407   -1.7787    0.0000 O.3     1  UNL1       -0.3888
      4 O          11.2842   -0.7988    0.0000 O.3     1  UNL1       -0.3858
      5 O          10.5045    2.7184    0.0000 O.3     1  UNL1       -0.4464
      6 O          11.9455    1.5597    0.0000 O.3     1  UNL1       -0.4659
      7 O          11.9255   -0.1722    0.0000 O.2     1  UNL1       -0.2475
      8 O           8.7754    3.7993    0.0000 O.2     1  UNL1       -0.2466
      9 O           6.8671   -3.4241    0.0000 O.2     1  UNL1       -0.4576
     10 O           5.0597   -2.3713    0.0000 O.2     1  UNL1       -0.2885
     11 O           9.6975    4.2510    0.0000 O.2     1  UNL1       -0.2456
     12 O           5.1350   -3.4241    0.0000 O.3     1  UNL1       -0.3313
     13 O           6.8671   -5.4241    0.0000 O.3     1  UNL1       -0.3829
     14 O           5.1350   -6.4241    0.0000 O.3     1  UNL1       -0.3864
     15 O           3.4030   -5.4241    0.0000 O.3     1  UNL1       -0.3865
     16 O          13.2369    6.1146    0.0000 O.3     1  UNL1       -0.3848
     17 O           2.5369   -3.9241    0.0000 O.3     1  UNL1       -0.3924
     18 C           8.7037    0.7311    0.0000 C.3     1  UNL1        0.0471
     19 C           8.6921   -0.2688    0.0000 C.3     1  UNL1        0.0084
     20 C           9.5754    1.2211    0.0000 C.3     1  UNL1        0.0603
     21 C           7.7920   -0.7931    0.0000 C.3     1  UNL1       -0.0007
     22 C           7.8160    1.2761    0.0000 C.3     1  UNL1        0.1120
     23 C          10.4356    0.7111    0.0000 C.3     1  UNL1        0.2007
     24 C           6.8920   -0.2688    0.0000 C.3     1  UNL1       -0.0187
     25 C           9.5523   -0.7788    0.0000 C.3     1  UNL1        0.0886
     26 C           9.1651    0.3258    0.0000 C.3     1  UNL1        0.0591
     27 C          10.4241   -0.2888    0.0000 C.3     1  UNL1        0.1210
     28 C           6.9040    0.7728    0.0000 C.3     1  UNL1       -0.0108
     29 C           9.6196    2.2526    0.0000 C.3     1  UNL1        0.2059
     30 C           5.9421   -0.7931    0.0000 C.3     1  UNL1        0.0261
     31 C           8.4319   -1.5616    0.0000 C.3     1  UNL1       -0.0553
     32 C           7.8046   -1.8780    0.0000 C.2     1  UNL1       -0.0321
     33 C          11.4355    0.6996    0.0000 C.2     1  UNL1        0.3423
     34 C           8.7442    2.7998    0.0000 C.2     1  UNL1        0.3491
     35 C           5.9295   -1.8780    0.0000 C.2     1  UNL1        0.2002
     36 C           6.8671   -2.4241    0.0000 C.2     1  UNL1        0.1631
     37 C           5.0839   -0.2798    0.0000 C.3     1  UNL1       -0.0550
     38 C          10.5434    3.7177    0.0000 C.2     1  UNL1        0.3328
     39 C          12.9455    1.5482    0.0000 C.3     1  UNL1        0.0818
     40 C           6.0010   -3.9241    0.0000 C.3     1  UNL1        0.2309
     41 C          11.4283    4.1836    0.0000 C.2     1  UNL1        0.0242
     42 C           6.0010   -4.9241    0.0000 C.3     1  UNL1        0.1454
     43 C           5.1350   -5.4241    0.0000 C.3     1  UNL1        0.1152
     44 C           4.2690   -3.9241    0.0000 C.3     1  UNL1        0.1140
     45 C          11.4672    5.1828    0.0000 C.2     1  UNL1       -0.0353
     46 C           4.2690   -4.9241    0.0000 C.3     1  UNL1        0.1120
     47 C          12.3521    5.6487    0.0000 C.3     1  UNL1        0.0817
     48 C           3.4030   -3.4241    0.0000 C.3     1  UNL1        0.0731
     49 C          10.6213    5.7162    0.0000 C.3     1  UNL1       -0.0406
     50 C          11.8862    6.5335    0.0000 C.3     1  UNL1       -0.0324
     51 C          12.8180    4.7638    0.0000 C.3     1  UNL1       -0.0324
     52 H           8.6823   -1.1187    0.0000 H       1  UNL1        0.0342
     53 H           9.1590    1.9621    0.0000 H       1  UNL1        0.0384
     54 H           7.0883    1.7154    0.0000 H       1  UNL1        0.0740
     55 H           6.1625    0.1675    0.0000 H       1  UNL1        0.0317
     56 H          10.0856   -1.0950    0.0000 H       1  UNL1        0.0623
     57 H           8.6407   -0.0050    0.0000 H       1  UNL1        0.0567
     58 H           9.3338   -0.2708    0.0000 H       1  UNL1        0.0567
     59 H          10.9645    0.0150    0.0000 H       1  UNL1        0.0654
     60 H           6.7017    1.3588    0.0000 H       1  UNL1        0.0304
     61 H           6.2920    0.6738    0.0000 H       1  UNL1        0.0304
     62 H           9.6426    2.8721    0.0000 H       1  UNL1        0.0857
     63 H           5.4010   -1.0958    0.0000 H       1  UNL1        0.0382
     64 H           7.9554   -1.9583    0.0000 H       1  UNL1        0.0238
     65 H           8.8286   -2.0381    0.0000 H       1  UNL1        0.0238
     66 H           8.9084   -1.1649    0.0000 H       1  UNL1        0.0238
     67 H           8.3439   -2.1838    0.0000 H       1  UNL1        0.0615
     68 H          10.0741   -2.0949    0.0000 H       1  UNL1        0.2099
     69 H          11.2771   -1.4188    0.0000 H       1  UNL1        0.2100
     70 H           5.4021    0.2523    0.0000 H       1  UNL1        0.0237
     71 H           4.5518    0.0385    0.0000 H       1  UNL1        0.0237
     72 H           4.7656   -0.8119    0.0000 H       1  UNL1        0.0237
     73 H          12.9383    0.9282    0.0000 H       1  UNL1        0.0661
     74 H          13.5654    1.5410    0.0000 H       1  UNL1        0.0661
     75 H          12.9526    2.1681    0.0000 H       1  UNL1        0.0661
     76 H           6.0010   -3.3041    0.0000 H       1  UNL1        0.1084
     77 H          11.9527    3.8529    0.0000 H       1  UNL1        0.0689
     78 H           6.0010   -5.5441    0.0000 H       1  UNL1        0.0683
     79 H           4.5981   -5.7341    0.0000 H       1  UNL1        0.0648
     80 H           4.2690   -3.3041    0.0000 H       1  UNL1        0.0647
     81 H           3.7320   -4.6141    0.0000 H       1  UNL1        0.0647
     82 H           6.8671   -6.0441    0.0000 H       1  UNL1        0.2102
     83 H           3.8015   -2.9492    0.0000 H       1  UNL1        0.0584
     84 H           3.0044   -2.9492    0.0000 H       1  UNL1        0.0584
     85 H          10.9520    6.2406    0.0000 H       1  UNL1        0.0275
     86 H          10.0969    6.0468    0.0000 H       1  UNL1        0.0275
     87 H          10.2906    5.1917    0.0000 H       1  UNL1        0.0275
     88 H           4.5981   -6.7341    0.0000 H       1  UNL1        0.2100
     89 H           3.4030   -6.0441    0.0000 H       1  UNL1        0.2100
     90 H          12.4348    6.8224    0.0000 H       1  UNL1        0.0260
     91 H          11.5973    7.0822    0.0000 H       1  UNL1        0.0260
     92 H          11.3376    6.2447    0.0000 H       1  UNL1        0.0260
     93 H          12.2693    4.4750    0.0000 H       1  UNL1        0.0260
     94 H          13.1068    4.2152    0.0000 H       1  UNL1        0.0260
     95 H          13.3666    5.0527    0.0000 H       1  UNL1        0.0260
     96 H          13.2611    6.7341    0.0000 H       1  UNL1        0.2106
     97 H           2.0000   -3.6141    0.0000 H       1  UNL1        0.2095
@<TRIPOS>BOND
     1     1    23    1
     2     1    26    1
     3     2    22    1
     4     2    34    1
     5    25     3    1
     6     3    68    1
     7    27     4    1
     8     4    69    1
     9    29     5    1
    10     5    38    1
    11     6    33    1
    12     6    39    1
    13     7    33    2
    14     8    34    2
    15     9    36    1
    16    40     9    1
    17    10    35    2
    18    11    38    2
    19    12    40    1
    20    12    44    1
    21    42    13    1
    22    13    82    1
    23    43    14    1
    24    14    88    1
    25    46    15    1
    26    15    89    1
    27    16    47    1
    28    16    96    1
    29    17    48    1
    30    17    97    1
    31    18    19    1
    32    18    20    1
    33    18    22    1
    34    18    26    1
    35    19    21    1
    36    19    25    1
    37    19    52    1
    38    20    23    1
    39    20    29    1
    40    20    53    1
    41    21    24    1
    42    21    31    1
    43    21    32    1
    44    22    28    1
    45    22    54    1
    46    23    27    1
    47    23    33    1
    48    24    28    1
    49    24    30    1
    50    24    55    1
    51    25    27    1
    52    25    56    1
    53    26    57    1
    54    26    58    1
    55    27    59    1
    56    28    60    1
    57    28    61    1
    58    29    34    1
    59    29    62    1
    60    30    35    1
    61    30    37    1
    62    30    63    1
    63    31    64    1
    64    31    65    1
    65    31    66    1
    66    32    36    2
    67    32    67    1
    68    35    36    1
    69    37    70    1
    70    37    71    1
    71    37    72    1
    72    38    41    1
    73    39    73    1
    74    39    74    1
    75    39    75    1
    76    40    42    1
    77    40    76    1
    78    41    45    2
    79    41    77    1
    80    42    43    1
    81    42    78    1
    82    43    46    1
    83    43    79    1
    84    44    46    1
    85    44    48    1
    86    44    80    1
    87    45    47    1
    88    45    49    1
    89    46    81    1
    90    47    50    1
    91    47    51    1
    92    48    83    1
    93    48    84    1
    94    49    85    1
    95    49    86    1
    96    49    87    1
    97    50    90    1
    98    50    91    1
    99    50    92    1
   100    51    93    1
   101    51    94    1
   102    51    95    1
