@<TRIPOS>MOLECULE
IMPHY006476
 35 37 0 0 0
SMALL
GASTEIGER

@<TRIPOS>ATOM
      1 O           4.6647   -2.3843    0.0000 O.2     1  UNL1       -0.2968
      2 C           4.0791   -0.7073    0.0000 C.3     1  UNL1        0.0331
      3 C           3.1781   -0.2734    0.0000 C.3     1  UNL1       -0.0195
      4 C           2.9556    0.7015    0.0000 C.3     1  UNL1       -0.0102
      5 C           3.9722    0.4695    0.0000 C.3     1  UNL1       -0.0338
      6 C           4.5791    1.4834    0.0000 C.3     1  UNL1       -0.0187
      7 C           4.9800   -0.2734    0.0000 C.3     1  UNL1       -0.0398
      8 C           5.2025    0.7015    0.0000 C.3     1  UNL1       -0.0456
      9 C           2.4930   -0.9937    0.0000 C.3     1  UNL1       -0.0418
     10 C           3.5791    1.4834    0.0000 C.2     1  UNL1       -0.0676
     11 C           3.9431   -1.6920    0.0000 C.2     1  UNL1        0.1398
     12 C           2.9648   -1.8687    0.0000 C.3     1  UNL1        0.0067
     13 C           2.2225    1.3817    0.0000 C.3     1  UNL1       -0.0558
     14 C           2.0000    0.4068    0.0000 C.3     1  UNL1       -0.0558
     15 C           3.1452    2.3843    0.0000 C.2     1  UNL1       -0.0987
     16 H           2.3584   -0.0483    0.0000 H       1  UNL1        0.0319
     17 H           3.5644    0.9365    0.0000 H       1  UNL1        0.0280
     18 H           3.4022    0.2257    0.0000 H       1  UNL1        0.0280
     19 H           4.7682    2.3120    0.0000 H       1  UNL1        0.0346
     20 H           5.1180   -0.8779    0.0000 H       1  UNL1        0.0275
     21 H           5.6000   -0.2734    0.0000 H       1  UNL1        0.0275
     22 H           5.7612    0.4325    0.0000 H       1  UNL1        0.0271
     23 H           5.5891    1.1863    0.0000 H       1  UNL1        0.0271
     24 H           2.0911   -0.5216    0.0000 H       1  UNL1        0.0272
     25 H           1.9812   -1.3437    0.0000 H       1  UNL1        0.0272
     26 H           2.3912   -2.1040    0.0000 H       1  UNL1        0.0342
     27 H           3.1385   -2.4638    0.0000 H       1  UNL1        0.0342
     28 H           2.6442    1.8362    0.0000 H       1  UNL1        0.0238
     29 H           1.7680    1.8034    0.0000 H       1  UNL1        0.0238
     30 H           1.8008    0.9272    0.0000 H       1  UNL1        0.0238
     31 H           1.8172    0.9992    0.0000 H       1  UNL1        0.0238
     32 H           1.4075    0.2240    0.0000 H       1  UNL1        0.0238
     33 H           2.1828   -0.1857    0.0000 H       1  UNL1        0.0238
     34 H           3.4944    2.8966    0.0000 H       1  UNL1        0.0535
     35 H           2.5269    2.4307    0.0000 H       1  UNL1        0.0535
@<TRIPOS>BOND
     1     1    11    2
     2     2     3    1
     3     2     5    1
     4     2     7    1
     5     2    11    1
     6     3     4    1
     7     3     9    1
     8     3    16    1
     9     4    10    1
    10     4    13    1
    11     4    14    1
    12     5     6    1
    13     5    17    1
    14     5    18    1
    15     6     8    1
    16     6    10    1
    17     6    19    1
    18     7     8    1
    19     7    20    1
    20     7    21    1
    21     8    22    1
    22     8    23    1
    23     9    12    1
    24     9    24    1
    25     9    25    1
    26    10    15    2
    27    11    12    1
    28    12    26    1
    29    12    27    1
    30    13    28    1
    31    13    29    1
    32    13    30    1
    33    14    31    1
    34    14    32    1
    35    14    33    1
    36    15    34    1
    37    15    35    1
