@<TRIPOS>MOLECULE
IMPHY010420
 42 45 0 0 0
SMALL
GASTEIGER

@<TRIPOS>ATOM
      1 O           2.4545    1.4638    0.0000 O.3     1  UNL1       -0.3648
      2 O           5.6665    2.6123    0.0000 O.3     1  UNL1       -0.4572
      3 O           5.3918    0.8104    0.0000 O.3     1  UNL1       -0.4531
      4 O           3.7226   -2.0200    0.0000 O.3     1  UNL1       -0.4564
      5 O           7.2543    3.4213    0.0000 O.2     1  UNL1       -0.2453
      6 O           3.6046    0.7618    0.0000 O.2     1  UNL1       -0.2452
      7 O           2.0000   -1.8390    0.0000 O.2     1  UNL1       -0.2511
      8 C           3.4494    1.3590    0.0000 C.3     1  UNL1        0.0967
      9 C           2.8616    0.5500    0.0000 C.3     1  UNL1        0.0919
     10 C           4.4440    1.2545    0.0000 C.3     1  UNL1        0.0164
     11 C           5.3575    1.6612    0.0000 C.3     1  UNL1        0.1167
     12 C           3.0181   -0.4377    0.0000 C.3     1  UNL1        0.0179
     13 C           6.1665    1.0734    0.0000 C.3     1  UNL1        0.0681
     14 C           3.5541    2.3535    0.0000 C.3     1  UNL1       -0.0332
     15 C           3.8271   -1.0255    0.0000 C.3     1  UNL1        0.1369
     16 C           6.0620    0.0789    0.0000 C.3     1  UNL1        0.1328
     17 C           4.7406   -0.6188    0.0000 C.2     1  UNL1        0.0763
     18 C           6.9755    1.6612    0.0000 C.2     1  UNL1        0.0399
     19 C           5.6742   -0.9771    0.0000 C.2     1  UNL1       -0.0297
     20 C           6.6665    2.6123    0.0000 C.2     1  UNL1        0.3354
     21 C           4.5146    0.3472    0.0000 C.2     1  UNL1        0.3391
     22 C           7.9266    1.3522    0.0000 C.2     1  UNL1       -0.0882
     23 C           2.8090   -2.4268    0.0000 C.2     1  UNL1        0.3045
     24 C           2.7045   -3.4213    0.0000 C.3     1  UNL1        0.0333
     25 H           2.0467    0.3085    0.0000 H       1  UNL1        0.0626
     26 H           4.1722    0.6972    0.0000 H       1  UNL1        0.0330
     27 H           4.3470    1.8668    0.0000 H       1  UNL1        0.0330
     28 H           4.6698    2.1608    0.0000 H       1  UNL1        0.0742
     29 H           2.4015   -0.3729    0.0000 H       1  UNL1        0.0330
     30 H           2.7959   -1.0165    0.0000 H       1  UNL1        0.0330
     31 H           6.8542    0.5738    0.0000 H       1  UNL1        0.0427
     32 H           4.1707    2.2886    0.0000 H       1  UNL1        0.0258
     33 H           3.6190    2.9701    0.0000 H       1  UNL1        0.0258
     34 H           2.9375    2.4184    0.0000 H       1  UNL1        0.0258
     35 H           3.2607   -1.2777    0.0000 H       1  UNL1        0.0788
     36 H           6.6362   -0.5478    0.0000 H       1  UNL1        0.0787
     37 H           5.9305   -1.5417    0.0000 H       1  UNL1        0.0615
     38 H           8.0555    0.7457    0.0000 H       1  UNL1        0.0540
     39 H           8.3873    1.7670    0.0000 H       1  UNL1        0.0540
     40 H           2.0879   -3.3565    0.0000 H       1  UNL1        0.0342
     41 H           2.6397   -4.0379    0.0000 H       1  UNL1        0.0342
     42 H           3.3211   -3.4861    0.0000 H       1  UNL1        0.0342
@<TRIPOS>BOND
     1     1     8    1
     2     1     9    1
     3     2    11    1
     4     2    20    1
     5     3    16    1
     6     3    21    1
     7    15     4    1
     8     4    23    1
     9     5    20    2
    10     6    21    2
    11     7    23    2
    12     8     9    1
    13     8    10    1
    14     8    14    1
    15     9    12    1
    16     9    25    1
    17    10    11    1
    18    10    26    1
    19    10    27    1
    20    11    13    1
    21    11    28    1
    22    12    15    1
    23    12    29    1
    24    12    30    1
    25    13    16    1
    26    13    18    1
    27    13    31    1
    28    14    32    1
    29    14    33    1
    30    14    34    1
    31    15    17    1
    32    15    35    1
    33    16    19    1
    34    16    36    1
    35    17    19    2
    36    17    21    1
    37    18    20    1
    38    18    22    2
    39    19    37    1
    40    22    38    1
    41    22    39    1
    42    23    24    1
    43    24    40    1
    44    24    41    1
    45    24    42    1
