@<TRIPOS>MOLECULE
IMPHY010079
 28 32 0 0 0
SMALL
GASTEIGER

@<TRIPOS>ATOM
      1 O           8.4276   -6.1860    0.0000 O.3     1  UNL1       -0.4349
      2 C           8.5560   -7.5121    0.0000 C.3     1  UNL1        0.4294
      3 O           7.3410   -8.0426    0.0000 O.3     1  UNL1       -0.4346
      4 C           6.4598   -7.0501    0.0000 C.ar    1  UNL1        0.1762
      5 C           7.1271   -5.9122    0.0000 C.ar    1  UNL1        0.1746
      6 C           6.4598   -4.7571    0.0000 C.ar    1  UNL1        0.0450
      7 C           6.8704   -3.5079    0.0000 C.3     1  UNL1        0.1967
      8 C           5.7496   -2.6609    0.0000 C.3     1  UNL1        0.1289
      9 N           6.9047   -2.0192    0.0000 N.3     1  UNL1       -0.2656
     10 C           6.9047   -0.6759    0.0000 C.3     1  UNL1        0.0772
     11 C           5.7496    0.0000    0.0000 C.3     1  UNL1        0.0435
     12 C           4.5946   -0.6759    0.0000 C.ar    1  UNL1       -0.0202
     13 C           4.5946   -1.9850    0.0000 C.ar    1  UNL1       -0.0046
     14 C           3.4481   -2.6609    0.0000 C.ar    1  UNL1        0.0369
     15 C           2.3101   -1.9850    0.0000 C.ar    1  UNL1        0.1721
     16 C           2.3101   -0.6759    0.0000 C.ar    1  UNL1        0.1721
     17 C           3.4481    0.0000    0.0000 C.ar    1  UNL1        0.0356
     18 C           5.1250   -7.0501    0.0000 C.ar    1  UNL1        0.0399
     19 C           4.4662   -5.8951    0.0000 C.ar    1  UNL1        0.0013
     20 C           5.1250   -4.7571    0.0000 C.ar    1  UNL1        0.0110
     21 C           4.7143   -3.4908    0.0000 C.3     1  UNL1        0.1938
     22 O           8.1196   -3.5079    0.0000 O.3     1  UNL1       -0.2163
     23 C           8.3335   -2.0192    0.0000 C.3     1  UNL1        0.0900
     24 O           1.1551   -2.6609    0.0000 O.3     1  UNL1       -0.4684
     25 C           1.1551   -4.0042    0.0000 C.3     1  UNL1        0.2526
     26 O           1.1551    0.0000    0.0000 O.3     1  UNL1       -0.4684
     27 C           0.0000   -0.6588    0.0000 C.3     1  UNL1        0.2526
     28 O           3.4481   -3.4908    0.0000 O.3     1  UNL1       -0.2164
@<TRIPOS>BOND
     1     1     5    1
     2     1     2    1
     3     2     3    1
     4     3     4    1
     5     4     5   ar
     6     4    18   ar
     7     5     6   ar
     8     6     7    1
     9     6    20   ar
    10     7     8    1
    11     7    22    1
    12     8    13    1
    13     8     9    1
    14     8    21    1
    15     9    10    1
    16     9    23    1
    17    10    11    1
    18    11    12    1
    19    12    17   ar
    20    12    13   ar
    21    13    14   ar
    22    14    15   ar
    23    15    16   ar
    24    15    24    1
    25    16    17   ar
    26    16    26    1
    27    18    19   ar
    28    19    20   ar
    29    20    21    1
    30    21    28    1
    31    24    25    1
    32    26    27    1
