@<TRIPOS>MOLECULE
IMPHY010035
 52 54 0 0 0
SMALL
GASTEIGER

@<TRIPOS>ATOM
      1 O           6.0682   -2.2052    0.0000 O.2     1  UNL1       -0.4543
      2 O           7.8167    0.8294    0.0000 O.3     1  UNL1       -0.5055
      3 O           6.0682    0.7948    0.0000 O.2     1  UNL1       -0.2863
      4 O           9.5984   -2.2293    0.0000 O.3     1  UNL1       -0.5062
      5 O           2.5381   -0.1810    0.0000 O.3     1  UNL1       -0.5065
      6 C           5.2022   -0.7052    0.0000 C.ar    1  UNL1        0.0716
      7 C           6.9343   -0.7052    0.0000 C.ar    1  UNL1        0.1064
      8 C           4.3083   -0.1705    0.0000 C.ar    1  UNL1        0.0121
      9 C           6.9343   -1.7052    0.0000 C.ar    1  UNL1        0.1463
     10 C           5.2022   -1.7052    0.0000 C.ar    1  UNL1        0.1398
     11 C           6.0682   -0.2052    0.0000 C.ar    1  UNL1        0.2041
     12 C           8.7343   -0.6844    0.0000 C.ar    1  UNL1        0.0400
     13 C           7.8282   -0.1705    0.0000 C.ar    1  UNL1        0.1381
     14 C           4.3198    0.8294    0.0000 C.3     1  UNL1       -0.0050
     15 C           7.8282   -2.2398    0.0000 C.ar    1  UNL1        0.0234
     16 C           8.7343   -1.7260    0.0000 C.ar    1  UNL1        0.1273
     17 C           9.5984   -0.1810    0.0000 C.3     1  UNL1       -0.0023
     18 C           3.4022   -0.6844    0.0000 C.ar    1  UNL1        0.1212
     19 C           4.3083   -2.2398    0.0000 C.ar    1  UNL1       -0.0152
     20 C           3.4022   -1.7260    0.0000 C.ar    1  UNL1       -0.0164
     21 C           3.4597    1.3394    0.0000 C.2     1  UNL1       -0.0808
     22 C          10.4663   -0.6777    0.0000 C.2     1  UNL1       -0.0807
     23 C           3.4712    2.3393    0.0000 C.2     1  UNL1       -0.0793
     24 C          11.3304   -0.1743    0.0000 C.2     1  UNL1       -0.0793
     25 C           2.6110    2.8493    0.0000 C.3     1  UNL1       -0.0440
     26 C           4.3430    2.8293    0.0000 C.3     1  UNL1       -0.0440
     27 C          12.1984   -0.6710    0.0000 C.3     1  UNL1       -0.0440
     28 C          11.3266    0.8256    0.0000 C.3     1  UNL1       -0.0440
     29 H           4.9291    0.7147    0.0000 H       1  UNL1        0.0357
     30 H           4.5386    1.4095    0.0000 H       1  UNL1        0.0357
     31 H           7.8210   -2.8598    0.0000 H       1  UNL1        0.0691
     32 H           9.9951    0.2955    0.0000 H       1  UNL1        0.0358
     33 H           9.1980    0.2924    0.0000 H       1  UNL1        0.0358
     34 H           4.3154   -2.8598    0.0000 H       1  UNL1        0.0656
     35 H           2.8665   -2.0380    0.0000 H       1  UNL1        0.0655
     36 H           2.9192    1.0356    0.0000 H       1  UNL1        0.0575
     37 H          10.4687   -1.2977    0.0000 H       1  UNL1        0.0575
     38 H           8.3500    1.1456    0.0000 H       1  UNL1        0.2922
     39 H           9.5960   -2.8493    0.0000 H       1  UNL1        0.2921
     40 H           2.0000   -0.4890    0.0000 H       1  UNL1        0.2921
     41 H           2.9272    3.3826    0.0000 H       1  UNL1        0.0274
     42 H           4.6468    2.2888    0.0000 H       1  UNL1        0.0274
     43 H           4.8835    3.1331    0.0000 H       1  UNL1        0.0274
     44 H           4.0392    3.3698    0.0000 H       1  UNL1        0.0274
     45 H           2.0777    3.1655    0.0000 H       1  UNL1        0.0274
     46 H           2.2948    2.3160    0.0000 H       1  UNL1        0.0274
     47 H          11.8904   -1.2091    0.0000 H       1  UNL1        0.0274
     48 H          12.7365   -0.9789    0.0000 H       1  UNL1        0.0274
     49 H          12.5063   -0.1329    0.0000 H       1  UNL1        0.0274
     50 H          11.9466    0.8280    0.0000 H       1  UNL1        0.0274
     51 H          11.3242    1.4456    0.0000 H       1  UNL1        0.0274
     52 H          10.7066    0.8233    0.0000 H       1  UNL1        0.0274
@<TRIPOS>BOND
     1     1     9   ar
     2     1    10   ar
     3     2    13    1
     4     2    38    1
     5     3    11    2
     6     4    16    1
     7     4    39    1
     8     5    18    1
     9     5    40    1
    10     6     8   ar
    11     6    10   ar
    12     6    11   ar
    13     7     9   ar
    14     7    11   ar
    15     7    13   ar
    16     8    14    1
    17     8    18   ar
    18     9    15   ar
    19    10    19   ar
    20    12    13   ar
    21    12    16   ar
    22    12    17    1
    23    14    21    1
    24    14    29    1
    25    14    30    1
    26    15    16   ar
    27    15    31    1
    28    17    22    1
    29    17    32    1
    30    17    33    1
    31    18    20   ar
    32    19    20   ar
    33    19    34    1
    34    20    35    1
    35    21    23    2
    36    21    36    1
    37    22    24    2
    38    22    37    1
    39    23    25    1
    40    23    26    1
    41    24    27    1
    42    24    28    1
    43    25    41    1
    44    25    45    1
    45    25    46    1
    46    26    42    1
    47    26    43    1
    48    26    44    1
    49    27    47    1
    50    27    48    1
    51    27    49    1
    52    28    50    1
    53    28    51    1
    54    28    52    1
