@<TRIPOS>MOLECULE
IMPHY008510
 90 96 0 0 0
SMALL
GASTEIGER

@<TRIPOS>ATOM
      1 O           3.2704   -1.5858    0.0000 O.3     1  UNL1       -0.3635
      2 O           6.0538    2.2374    0.0000 O.3     1  UNL1       -0.3403
      3 O           2.5357   -0.8077    0.0000 O.3     1  UNL1       -0.3911
      4 O           6.1340    0.4382    0.0000 O.3     1  UNL1       -0.3873
      5 O           7.0120   -0.3082    0.0000 O.2     1  UNL1       -0.2971
      6 O           4.5357    3.2064    0.0000 O.3     1  UNL1       -0.4569
      7 O           6.1172    2.6689    0.0000 O.3     1  UNL1       -0.4551
      8 O           5.1877    3.7374    0.0000 O.3     1  UNL1       -0.4342
      9 O           7.0778   -5.0695    0.0000 O.2     1  UNL1       -0.4708
     10 O           2.8885    3.7417    0.0000 O.2     1  UNL1       -0.2512
     11 O           7.4441    1.5556    0.0000 O.2     1  UNL1       -0.2512
     12 O           6.9198    3.7374    0.0000 O.2     1  UNL1       -0.2505
     13 C           4.2974   -1.9169    0.0000 C.3     1  UNL1        0.1106
     14 C           4.3058   -0.8319    0.0000 C.3     1  UNL1        0.0360
     15 C           5.2370   -2.4594    0.0000 C.3     1  UNL1        0.0137
     16 C           3.4977   -2.6406    0.0000 C.3     1  UNL1        0.0902
     17 C           5.2038   -0.3041    0.0000 C.3     1  UNL1        0.0385
     18 C           5.1877    0.7374    0.0000 C.3     1  UNL1        0.0376
     19 C           4.3217    1.2374    0.0000 C.3     1  UNL1       -0.0131
     20 C           5.0100   -3.5138    0.0000 C.3     1  UNL1       -0.0019
     21 C           3.4037   -0.3111    0.0000 C.3     1  UNL1        0.0643
     22 C           3.9373   -3.6256    0.0000 C.3     1  UNL1       -0.0163
     23 C           6.1725   -1.9096    0.0000 C.3     1  UNL1        0.0148
     24 C           3.4117    0.7305    0.0000 C.3     1  UNL1       -0.0219
     25 C           4.3217    2.2374    0.0000 C.3     1  UNL1        0.0744
     26 C           6.1557   -0.8248    0.0000 C.2     1  UNL1        0.1384
     27 C           5.3908    1.1073    0.0000 C.3     1  UNL1        0.1042
     28 C           3.3223   -1.0131    0.0000 C.3     1  UNL1       -0.0538
     29 C           6.1031   -2.9594    0.0000 C.3     1  UNL1       -0.0559
     30 C           6.0538    1.2374    0.0000 C.3     1  UNL1        0.0607
     31 C           4.7436    2.2283    0.0000 C.3     1  UNL1        0.1535
     32 C           5.4745    1.9029    0.0000 C.3     1  UNL1        0.1666
     33 C           5.1877    2.7374    0.0000 C.3     1  UNL1        0.2139
     34 C           5.6779   -4.2581    0.0000 C.ar    1  UNL1       -0.0059
     35 C           3.4557    2.7374    0.0000 C.3     1  UNL1       -0.0500
     36 C           5.4683   -5.2359    0.0000 C.ar    1  UNL1       -0.0205
     37 C           6.6726   -4.1553    0.0000 C.ar    1  UNL1        0.0951
     38 C           6.3334   -5.7374    0.0000 C.ar    1  UNL1        0.0919
     39 C           3.8666    3.9496    0.0000 C.2     1  UNL1        0.3043
     40 C           7.1020    2.4953    0.0000 C.2     1  UNL1        0.3044
     41 C           6.0538    4.2374    0.0000 C.2     1  UNL1        0.3118
     42 C           6.0538    5.2374    0.0000 C.3     1  UNL1        0.0509
     43 C           4.1756    4.9006    0.0000 C.3     1  UNL1        0.0332
     44 C           7.7448    3.2613    0.0000 C.3     1  UNL1        0.0332
     45 C           6.9198    5.7374    0.0000 C.3     1  UNL1       -0.0525
     46 C           5.1877    5.7374    0.0000 C.3     1  UNL1       -0.0525
     47 H           2.6898   -2.9048    0.0000 H       1  UNL1        0.0625
     48 H           5.9316    0.1350    0.0000 H       1  UNL1        0.0391
     49 H           3.5889    1.6680    0.0000 H       1  UNL1        0.0317
     50 H           4.7044   -4.3069    0.0000 H       1  UNL1        0.0357
     51 H           2.6700    0.1182    0.0000 H       1  UNL1        0.0600
     52 H           3.3477   -3.8174    0.0000 H       1  UNL1        0.0297
     53 H           4.0660   -4.2321    0.0000 H       1  UNL1        0.0297
     54 H           6.3905   -2.4900    0.0000 H       1  UNL1        0.0348
     55 H           6.7816   -1.7941    0.0000 H       1  UNL1        0.0348
     56 H           3.2072    1.3158    0.0000 H       1  UNL1        0.0293
     57 H           2.8001    0.6291    0.0000 H       1  UNL1        0.0293
     58 H           6.1844    1.4119    0.0000 H       1  UNL1        0.0638
     59 H           3.2100   -0.4034    0.0000 H       1  UNL1        0.0237
     60 H           2.7126   -1.1254    0.0000 H       1  UNL1        0.0237
     61 H           3.4347   -1.6228    0.0000 H       1  UNL1        0.0237
     62 H           5.7931   -3.4963    0.0000 H       1  UNL1        0.0236
     63 H           6.6400   -3.2694    0.0000 H       1  UNL1        0.0236
     64 H           6.4131   -2.4224    0.0000 H       1  UNL1        0.0236
     65 H           6.2658    0.6548    0.0000 H       1  UNL1        0.0568
     66 H           6.6644    1.3450    0.0000 H       1  UNL1        0.0568
     67 H           5.4042    2.7632    0.0000 H       1  UNL1        0.0780
     68 H           5.2832    2.7311    0.0000 H       1  UNL1        0.0798
     69 H           4.4516    3.1624    0.0000 H       1  UNL1        0.1064
     70 H           3.7657    3.2743    0.0000 H       1  UNL1        0.0238
     71 H           2.9188    3.0474    0.0000 H       1  UNL1        0.0238
     72 H           3.1457    2.2004    0.0000 H       1  UNL1        0.0238
     73 H           2.0000   -0.4957    0.0000 H       1  UNL1        0.2098
     74 H           6.0051   -0.1683    0.0000 H       1  UNL1        0.2100
     75 H           4.9014   -5.4871    0.0000 H       1  UNL1        0.0652
     76 H           6.9835   -3.6189    0.0000 H       1  UNL1        0.1032
     77 H           6.3972   -6.3541    0.0000 H       1  UNL1        0.1029
     78 H           6.0538    5.8574    0.0000 H       1  UNL1        0.0408
     79 H           4.7652    4.7091    0.0000 H       1  UNL1        0.0342
     80 H           4.3672    5.4903    0.0000 H       1  UNL1        0.0342
     81 H           3.5859    5.0922    0.0000 H       1  UNL1        0.0342
     82 H           8.2198    2.8628    0.0000 H       1  UNL1        0.0342
     83 H           8.1434    3.7363    0.0000 H       1  UNL1        0.0342
     84 H           7.2699    3.6599    0.0000 H       1  UNL1        0.0342
     85 H           7.2298    5.2004    0.0000 H       1  UNL1        0.0237
     86 H           7.4567    6.0474    0.0000 H       1  UNL1        0.0237
     87 H           6.6098    6.2743    0.0000 H       1  UNL1        0.0237
     88 H           5.4977    6.2743    0.0000 H       1  UNL1        0.0237
     89 H           4.6508    6.0474    0.0000 H       1  UNL1        0.0237
     90 H           4.8777    5.2004    0.0000 H       1  UNL1        0.0237
@<TRIPOS>BOND
     1     1    13    1
     2     1    16    1
     3     2    30    1
     4     2    33    1
     5     3    21    1
     6     3    73    1
     7     4    27    1
     8     4    74    1
     9     5    26    2
    10     6    31    1
    11     6    39    1
    12     7    32    1
    13     7    40    1
    14     8    33    1
    15     8    41    1
    16     9    37   ar
    17     9    38   ar
    18    10    39    2
    19    11    40    2
    20    12    41    2
    21    13    14    1
    22    13    15    1
    23    13    16    1
    24    14    17    1
    25    14    21    1
    26    14    28    1
    27    15    20    1
    28    15    23    1
    29    15    29    1
    30    16    22    1
    31    16    47    1
    32    17    18    1
    33    17    26    1
    34    17    48    1
    35    18    19    1
    36    18    27    1
    37    18    30    1
    38    19    24    1
    39    19    25    1
    40    19    49    1
    41    20    22    1
    42    20    34    1
    43    20    50    1
    44    21    24    1
    45    21    51    1
    46    22    52    1
    47    22    53    1
    48    23    26    1
    49    23    54    1
    50    23    55    1
    51    24    56    1
    52    24    57    1
    53    25    31    1
    54    25    33    1
    55    25    35    1
    56    27    32    1
    57    27    58    1
    58    28    59    1
    59    28    60    1
    60    28    61    1
    61    29    62    1
    62    29    63    1
    63    29    64    1
    64    30    65    1
    65    30    66    1
    66    31    32    1
    67    31    67    1
    68    32    68    1
    69    33    69    1
    70    34    36   ar
    71    34    37   ar
    72    35    70    1
    73    35    71    1
    74    35    72    1
    75    36    38   ar
    76    36    75    1
    77    37    76    1
    78    38    77    1
    79    39    43    1
    80    40    44    1
    81    41    42    1
    82    42    45    1
    83    42    46    1
    84    42    78    1
    85    43    79    1
    86    43    80    1
    87    43    81    1
    88    44    82    1
    89    44    83    1
    90    44    84    1
    91    45    85    1
    92    45    86    1
    93    45    87    1
    94    46    88    1
    95    46    89    1
    96    46    90    1
