@<TRIPOS>MOLECULE
IMPHY016923
 11 11 0 0 0
SMALL
GASTEIGER

@<TRIPOS>ATOM
      1 O          28.8149   -9.3460    0.0000 O.3     1  UNL1       -0.2231
      2 C          28.8149   -8.5210    0.0000 C.3     1  UNL1        0.1528
      3 C          29.5295   -8.1085    0.0000 C.3     1  UNL1        0.0398
      4 C          29.5295   -7.2834    0.0000 C.3     1  UNL1        0.0540
      5 C          28.8149   -6.8709    0.0000 C.2     1  UNL1        0.1496
      6 C          28.1004   -7.2834    0.0000 C.3     1  UNL1        0.0601
      7 C          28.1004   -8.1085    0.0000 C.3     1  UNL1        0.0402
      8 C          27.3860   -6.8709    0.0000 C.3     1  UNL1        0.0078
      9 O          28.8149   -6.0459    0.0000 O.2     1  UNL1       -0.2961
     10 C          30.0901   -6.6781    0.0000 C.3     1  UNL1        0.0074
     11 C          30.3339   -7.1004    0.0000 C.3     1  UNL1        0.0074
@<TRIPOS>BOND
     1     1     2    1
     2     2     3    1
     3     2     7    1
     4     3     4    1
     5     4     5    1
     6     4    10    1
     7     4    11    1
     8     5     6    1
     9     5     9    2
    10     6     7    1
    11     6     8    1
