@<TRIPOS>MOLECULE
IMPHY009716
 37 40 0 0 0
SMALL
GASTEIGER

@<TRIPOS>ATOM
      1 O           3.8496   -2.4064    0.0000 O.3     1  UNL1       -0.3731
      2 C           3.8507    0.6463    0.0000 C.3     1  UNL1       -0.0231
      3 C           3.0417    0.0586    0.0000 C.3     1  UNL1       -0.0299
      4 C           4.3454   -0.8852    0.0000 C.3     1  UNL1       -0.0064
      5 C           3.3513   -0.8861    0.0000 C.3     1  UNL1       -0.0088
      6 C           4.6534    0.0599    0.0000 C.3     1  UNL1       -0.0411
      7 C           4.6491   -1.8256    0.0000 C.3     1  UNL1        0.0699
      8 C           3.5417    1.5974    0.0000 C.3     1  UNL1       -0.0379
      9 C           3.5134   -0.2998    0.0000 C.3     1  UNL1       -0.0442
     10 C           2.2326    0.6463    0.0000 C.3     1  UNL1       -0.0491
     11 C           3.8221   -1.2556    0.0000 C.3     1  UNL1       -0.0232
     12 C           2.5417    1.5974    0.0000 C.3     1  UNL1       -0.0497
     13 C           3.0492   -1.8270    0.0000 C.3     1  UNL1        0.0518
     14 C           5.4725   -2.3931    0.0000 C.3     1  UNL1       -0.0356
     15 C           4.1294    2.4064    0.0000 C.3     1  UNL1       -0.0619
     16 H           2.5405   -0.3065    0.0000 H       1  UNL1        0.0310
     17 H           5.1954   -0.8863    0.0000 H       1  UNL1        0.0332
     18 H           2.5013   -0.8886    0.0000 H       1  UNL1        0.0329
     19 H           4.9645    0.5963    0.0000 H       1  UNL1        0.0274
     20 H           5.2194   -0.1930    0.0000 H       1  UNL1        0.0274
     21 H           3.2602    2.1498    0.0000 H       1  UNL1        0.0304
     22 H           3.0079   -0.6589    0.0000 H       1  UNL1        0.0272
     23 H           3.0190    0.0744    0.0000 H       1  UNL1        0.0272
     24 H           1.9226    0.1094    0.0000 H       1  UNL1        0.0268
     25 H           1.6662    0.8985    0.0000 H       1  UNL1        0.0268
     26 H           3.6400   -1.8482    0.0000 H       1  UNL1        0.0293
     27 H           3.2021   -1.2600    0.0000 H       1  UNL1        0.0293
     28 H           1.9352    1.7263    0.0000 H       1  UNL1        0.0268
     29 H           2.6065    2.2140    0.0000 H       1  UNL1        0.0268
     30 H           2.7404   -2.3646    0.0000 H       1  UNL1        0.0563
     31 H           2.4821   -1.5764    0.0000 H       1  UNL1        0.0563
     32 H           5.8243   -1.8826    0.0000 H       1  UNL1        0.0257
     33 H           5.9830   -2.7449    0.0000 H       1  UNL1        0.0257
     34 H           5.1207   -2.9036    0.0000 H       1  UNL1        0.0257
     35 H           3.6278    2.7708    0.0000 H       1  UNL1        0.0233
     36 H           4.4939    2.9080    0.0000 H       1  UNL1        0.0233
     37 H           4.6310    2.0420    0.0000 H       1  UNL1        0.0233
@<TRIPOS>BOND
     1     1     7    1
     2     1    13    1
     3     2     3    1
     4     2     6    1
     5     2     8    1
     6     2     9    1
     7     3     5    1
     8     3    10    1
     9     3    16    1
    10     4     5    1
    11     4     6    1
    12     4     7    1
    13     4    17    1
    14     5    13    1
    15     5    18    1
    16     6    19    1
    17     6    20    1
    18     7    11    1
    19     7    14    1
    20     8    12    1
    21     8    15    1
    22     8    21    1
    23     9    11    1
    24     9    22    1
    25     9    23    1
    26    10    12    1
    27    10    24    1
    28    10    25    1
    29    11    26    1
    30    11    27    1
    31    12    28    1
    32    12    29    1
    33    13    30    1
    34    13    31    1
    35    14    32    1
    36    14    33    1
    37    14    34    1
    38    15    35    1
    39    15    36    1
    40    15    37    1
