@<TRIPOS>MOLECULE
IMPHY007263
 65 68 0 0 0
SMALL
GASTEIGER

@<TRIPOS>ATOM
      1 O           9.3981    0.2687    0.0000 O.3     1  UNL1       -0.4525
      2 O           2.0000    1.7896    0.0000 O.2     1  UNL1       -0.2921
      3 O           5.0000   -1.6745    0.0000 O.3     1  UNL1       -0.4679
      4 O           3.5000   -0.8085    0.0000 O.2     1  UNL1       -0.2509
      5 O          10.2622    1.8137    0.0000 O.2     1  UNL1       -0.2456
      6 O           8.9626   -2.7896    0.0000 O.2     1  UNL1       -0.4706
      7 C           5.0000    1.7896    0.0000 C.3     1  UNL1       -0.0027
      8 C           5.8660    1.2896    0.0000 C.3     1  UNL1       -0.0070
      9 C           4.5000    0.9235    0.0000 C.3     1  UNL1       -0.0094
     10 C           7.5981    0.2896    0.0000 C.3     1  UNL1        0.0347
     11 C           3.5000    0.9235    0.0000 C.3     1  UNL1        0.0315
     12 C           5.8660    0.2896    0.0000 C.3     1  UNL1       -0.0445
     13 C           6.7320   -0.2104    0.0000 C.3     1  UNL1       -0.0393
     14 C           6.7320    1.7896    0.0000 C.2     1  UNL1       -0.0465
     15 C           7.5981    1.2896    0.0000 C.2     1  UNL1       -0.0280
     16 C           4.5000    2.6556    0.0000 C.2     1  UNL1       -0.0739
     17 C           5.8660    2.2896    0.0000 C.3     1  UNL1       -0.0552
     18 C           5.0000    0.0575    0.0000 C.3     1  UNL1        0.0494
     19 C           8.4920   -0.2451    0.0000 C.3     1  UNL1        0.1405
     20 C           3.0000    1.7896    0.0000 C.2     1  UNL1        0.1617
     21 C           7.5981   -0.7104    0.0000 C.3     1  UNL1       -0.0518
     22 C           2.6340    0.4235    0.0000 C.3     1  UNL1       -0.0525
     23 C           3.5000   -0.0765    0.0000 C.3     1  UNL1       -0.0525
     24 C           3.5000    2.6556    0.0000 C.2     1  UNL1       -0.0220
     25 C           8.4920    1.8242    0.0000 C.2     1  UNL1        0.0266
     26 C           6.7320    2.7896    0.0000 C.2     1  UNL1       -0.0949
     27 C           8.4804   -1.2450    0.0000 C.ar    1  UNL1        0.0313
     28 C           4.5000   -0.8085    0.0000 C.2     1  UNL1        0.3071
     29 C           9.3981    1.3104    0.0000 C.2     1  UNL1        0.3328
     30 C           7.6647   -1.8234    0.0000 C.ar    1  UNL1       -0.0172
     31 C           9.2826   -1.8421    0.0000 C.ar    1  UNL1        0.0984
     32 C           7.9627   -2.7780    0.0000 C.ar    1  UNL1        0.0921
     33 C           4.5000   -2.5406    0.0000 C.3     1  UNL1        0.0817
     34 H           6.6022    0.8646    0.0000 H       1  UNL1        0.0357
     35 H           4.1900    0.3866    0.0000 H       1  UNL1        0.0324
     36 H           5.2554    0.3972    0.0000 H       1  UNL1        0.0272
     37 H           5.6540   -0.2931    0.0000 H       1  UNL1        0.0272
     38 H           6.3335   -0.6854    0.0000 H       1  UNL1        0.0275
     39 H           7.1306   -0.6854    0.0000 H       1  UNL1        0.0275
     40 H           4.8100    3.1925    0.0000 H       1  UNL1        0.0579
     41 H           6.1760    1.7526    0.0000 H       1  UNL1        0.0238
     42 H           6.4030    2.5996    0.0000 H       1  UNL1        0.0238
     43 H           5.5560    2.8265    0.0000 H       1  UNL1        0.0238
     44 H           5.4750   -0.3410    0.0000 H       1  UNL1        0.0381
     45 H           5.4750    0.4560    0.0000 H       1  UNL1        0.0381
     46 H           9.0259   -0.5603    0.0000 H       1  UNL1        0.0795
     47 H           6.9781   -0.7104    0.0000 H       1  UNL1        0.0239
     48 H           7.5981   -1.3304    0.0000 H       1  UNL1        0.0239
     49 H           8.2181   -0.7104    0.0000 H       1  UNL1        0.0239
     50 H           2.3240    0.9605    0.0000 H       1  UNL1        0.0239
     51 H           2.0970    0.1135    0.0000 H       1  UNL1        0.0239
     52 H           2.9440   -0.1134    0.0000 H       1  UNL1        0.0239
     53 H           2.8800   -0.0765    0.0000 H       1  UNL1        0.0239
     54 H           3.5000   -0.6965    0.0000 H       1  UNL1        0.0239
     55 H           4.1200   -0.0765    0.0000 H       1  UNL1        0.0239
     56 H           3.1900    3.1925    0.0000 H       1  UNL1        0.0649
     57 H           8.4848    2.4442    0.0000 H       1  UNL1        0.0692
     58 H           7.2690    3.0996    0.0000 H       1  UNL1        0.0538
     59 H           6.1951    3.0996    0.0000 H       1  UNL1        0.0538
     60 H           7.0773   -1.6250    0.0000 H       1  UNL1        0.0653
     61 H           9.8744   -1.6574    0.0000 H       1  UNL1        0.1033
     62 H           7.5925   -3.2753    0.0000 H       1  UNL1        0.1029
     63 H           3.9631   -2.2306    0.0000 H       1  UNL1        0.0661
     64 H           4.1900   -3.0775    0.0000 H       1  UNL1        0.0661
     65 H           5.0369   -2.8506    0.0000 H       1  UNL1        0.0661
@<TRIPOS>BOND
     1     1    19    1
     2     1    29    1
     3     2    20    2
     4     3    28    1
     5     3    33    1
     6     4    28    2
     7     5    29    2
     8     6    31   ar
     9     6    32   ar
    10     7     8    1
    11     7     9    1
    12     7    16    1
    13     7    17    1
    14     8    12    1
    15     8    14    1
    16     8    34    1
    17     9    11    1
    18     9    18    1
    19     9    35    1
    20    10    13    1
    21    10    15    1
    22    10    19    1
    23    10    21    1
    24    11    20    1
    25    11    22    1
    26    11    23    1
    27    12    13    1
    28    12    36    1
    29    12    37    1
    30    13    38    1
    31    13    39    1
    32    14    15    1
    33    14    26    2
    34    15    25    2
    35    16    24    2
    36    16    40    1
    37    17    41    1
    38    17    42    1
    39    17    43    1
    40    18    28    1
    41    18    44    1
    42    18    45    1
    43    19    27    1
    44    19    46    1
    45    20    24    1
    46    21    47    1
    47    21    48    1
    48    21    49    1
    49    22    50    1
    50    22    51    1
    51    22    52    1
    52    23    53    1
    53    23    54    1
    54    23    55    1
    55    24    56    1
    56    25    29    1
    57    25    57    1
    58    26    58    1
    59    26    59    1
    60    27    30   ar
    61    27    31   ar
    62    30    32   ar
    63    30    60    1
    64    31    61    1
    65    32    62    1
    66    33    63    1
    67    33    64    1
    68    33    65    1
