@<TRIPOS>MOLECULE
IMPHY006311
 59 58 0 0 0
SMALL
GASTEIGER

@<TRIPOS>ATOM
      1 O          13.7953    3.0000    0.0000 O.2     1  UNL1       -0.2974
      2 O           2.5369    1.5000    0.0000 O.3     1  UNL1       -0.4806
      3 O           3.4030    3.0000    0.0000 O.2     1  UNL1       -0.2510
      4 C          12.9292    1.5000    0.0000 C.3     1  UNL1        0.0206
      5 C          12.9292    0.5000    0.0000 C.3     1  UNL1       -0.0432
      6 C          12.0632    0.0000    0.0000 C.3     1  UNL1       -0.0524
      7 C          12.0632   -1.0000    0.0000 C.3     1  UNL1       -0.0530
      8 C          12.0632    2.0000    0.0000 C.3     1  UNL1       -0.0252
      9 C          11.1972   -1.5000    0.0000 C.3     1  UNL1       -0.0533
     10 C           7.7331    1.5000    0.0000 C.3     1  UNL1       -0.0528
     11 C           8.5991    2.0000    0.0000 C.3     1  UNL1       -0.0496
     12 C           6.8671    2.0000    0.0000 C.3     1  UNL1       -0.0530
     13 C          13.7953    2.0000    0.0000 C.2     1  UNL1        0.1337
     14 C           9.4651    1.5000    0.0000 C.3     1  UNL1       -0.0348
     15 C          11.1972    1.5000    0.0000 C.2     1  UNL1       -0.0873
     16 C           6.0010    1.5000    0.0000 C.3     1  UNL1       -0.0526
     17 C          11.1972   -2.5000    0.0000 C.3     1  UNL1       -0.0559
     18 C          10.3312    2.0000    0.0000 C.2     1  UNL1       -0.0879
     19 C           5.1350    2.0000    0.0000 C.3     1  UNL1       -0.0430
     20 C          14.6613    1.5000    0.0000 C.3     1  UNL1       -0.0058
     21 C           4.2690    1.5000    0.0000 C.3     1  UNL1        0.0448
     22 C          10.3312   -3.0000    0.0000 C.3     1  UNL1       -0.0653
     23 C           3.4030    2.0000    0.0000 C.2     1  UNL1        0.3047
     24 H          12.3923    1.1900    0.0000 H       1  UNL1        0.0380
     25 H          13.1413   -0.0826    0.0000 H       1  UNL1        0.0272
     26 H          13.5398    0.6077    0.0000 H       1  UNL1        0.0272
     27 H          11.8512    0.5826    0.0000 H       1  UNL1        0.0265
     28 H          11.4526   -0.1077    0.0000 H       1  UNL1        0.0265
     29 H          12.2753   -1.5826    0.0000 H       1  UNL1        0.0265
     30 H          12.6738   -0.8923    0.0000 H       1  UNL1        0.0265
     31 H          12.4617    2.4750    0.0000 H       1  UNL1        0.0314
     32 H          11.6647    2.4750    0.0000 H       1  UNL1        0.0314
     33 H          10.9851   -0.9174    0.0000 H       1  UNL1        0.0265
     34 H          10.5866   -1.6077    0.0000 H       1  UNL1        0.0265
     35 H           7.3346    1.0250    0.0000 H       1  UNL1        0.0265
     36 H           8.1316    1.0250    0.0000 H       1  UNL1        0.0265
     37 H           8.9976    2.4750    0.0000 H       1  UNL1        0.0268
     38 H           8.2006    2.4750    0.0000 H       1  UNL1        0.0268
     39 H           7.2656    2.4750    0.0000 H       1  UNL1        0.0265
     40 H           6.4685    2.4750    0.0000 H       1  UNL1        0.0265
     41 H           9.0666    1.0250    0.0000 H       1  UNL1        0.0307
     42 H           9.8637    1.0250    0.0000 H       1  UNL1        0.0307
     43 H          11.1972    0.8800    0.0000 H       1  UNL1        0.0569
     44 H           5.6025    1.0250    0.0000 H       1  UNL1        0.0265
     45 H           6.3996    1.0250    0.0000 H       1  UNL1        0.0265
     46 H          11.4092   -3.0826    0.0000 H       1  UNL1        0.0263
     47 H          11.8078   -2.3923    0.0000 H       1  UNL1        0.0263
     48 H          10.3312    2.6200    0.0000 H       1  UNL1        0.0569
     49 H           5.5335    2.4750    0.0000 H       1  UNL1        0.0270
     50 H           4.7365    2.4750    0.0000 H       1  UNL1        0.0270
     51 H          14.3513    0.9631    0.0000 H       1  UNL1        0.0306
     52 H          15.1982    1.1900    0.0000 H       1  UNL1        0.0306
     53 H          14.9713    2.0369    0.0000 H       1  UNL1        0.0306
     54 H           3.8705    1.0250    0.0000 H       1  UNL1        0.0377
     55 H           4.6675    1.0250    0.0000 H       1  UNL1        0.0377
     56 H          10.0212   -2.4631    0.0000 H       1  UNL1        0.0230
     57 H           9.7942   -3.3100    0.0000 H       1  UNL1        0.0230
     58 H          10.6412   -3.5369    0.0000 H       1  UNL1        0.0230
     59 H           2.0000    1.8100    0.0000 H       1  UNL1        0.2951
@<TRIPOS>BOND
     1     1    13    2
     2     2    23    1
     3     2    59    1
     4     3    23    2
     5     4     5    1
     6     4     8    1
     7     4    13    1
     8     4    24    1
     9     5     6    1
    10     5    25    1
    11     5    26    1
    12     6     7    1
    13     6    27    1
    14     6    28    1
    15     7     9    1
    16     7    29    1
    17     7    30    1
    18     8    15    1
    19     8    31    1
    20     8    32    1
    21     9    17    1
    22     9    33    1
    23     9    34    1
    24    10    11    1
    25    10    12    1
    26    10    35    1
    27    10    36    1
    28    11    14    1
    29    11    37    1
    30    11    38    1
    31    12    16    1
    32    12    39    1
    33    12    40    1
    34    13    20    1
    35    14    18    1
    36    14    41    1
    37    14    42    1
    38    15    18    2
    39    15    43    1
    40    16    19    1
    41    16    44    1
    42    16    45    1
    43    17    22    1
    44    17    46    1
    45    17    47    1
    46    18    48    1
    47    19    21    1
    48    19    49    1
    49    19    50    1
    50    20    51    1
    51    20    52    1
    52    20    53    1
    53    21    23    1
    54    21    54    1
    55    21    55    1
    56    22    56    1
    57    22    57    1
    58    22    58    1
