@<TRIPOS>MOLECULE
IMPHY010091
 48 53 0 0 0
SMALL
GASTEIGER

@<TRIPOS>ATOM
      1 O           4.6660   -3.5000    0.0000 O.2     1  UNL1       -0.2866
      2 O           4.6660    3.5000    0.0000 O.2     1  UNL1       -0.2866
      3 C           4.6660   -0.5000    0.0000 C.3     1  UNL1        0.0214
      4 C           4.6660    0.5000    0.0000 C.3     1  UNL1        0.0214
      5 C           5.5321   -1.0000    0.0000 C.ar    1  UNL1       -0.0283
      6 C           3.8000   -1.0000    0.0000 C.ar    1  UNL1       -0.0283
      7 C           3.8000    1.0000    0.0000 C.ar    1  UNL1       -0.0283
      8 C           5.5321    1.0000    0.0000 C.ar    1  UNL1       -0.0283
      9 C           3.8000    2.0000    0.0000 C.ar    1  UNL1        0.0260
     10 C           5.5321    2.0000    0.0000 C.ar    1  UNL1        0.0260
     11 C           3.8000   -2.0000    0.0000 C.ar    1  UNL1        0.0260
     12 C           5.5321   -2.0000    0.0000 C.ar    1  UNL1        0.0260
     13 C           4.6660   -2.5000    0.0000 C.2     1  UNL1        0.1937
     14 C           4.6660    2.5000    0.0000 C.2     1  UNL1        0.1937
     15 C           6.4260   -0.4653    0.0000 C.ar    1  UNL1       -0.0573
     16 C           2.9061   -0.4653    0.0000 C.ar    1  UNL1       -0.0573
     17 C           2.9061    0.4653    0.0000 C.ar    1  UNL1       -0.0573
     18 C           6.4260    0.4653    0.0000 C.ar    1  UNL1       -0.0573
     19 C           6.4260    2.5347    0.0000 C.ar    1  UNL1       -0.0506
     20 C           2.9061    2.5347    0.0000 C.ar    1  UNL1       -0.0506
     21 C           2.9061   -2.5347    0.0000 C.ar    1  UNL1       -0.0506
     22 C           6.4260   -2.5347    0.0000 C.ar    1  UNL1       -0.0506
     23 C           7.3321   -0.9792    0.0000 C.ar    1  UNL1       -0.0614
     24 C           2.0000   -0.9792    0.0000 C.ar    1  UNL1       -0.0614
     25 C           2.0000    0.9792    0.0000 C.ar    1  UNL1       -0.0614
     26 C           7.3321    0.9792    0.0000 C.ar    1  UNL1       -0.0614
     27 C           7.3321   -2.0208    0.0000 C.ar    1  UNL1       -0.0611
     28 C           2.0000   -2.0208    0.0000 C.ar    1  UNL1       -0.0611
     29 C           2.0000    2.0208    0.0000 C.ar    1  UNL1       -0.0611
     30 C           7.3321    2.0208    0.0000 C.ar    1  UNL1       -0.0611
     31 H           5.2030   -0.1900    0.0000 H       1  UNL1        0.0407
     32 H           4.1291    0.1900    0.0000 H       1  UNL1        0.0407
     33 H           6.4188   -0.1546    0.0000 H       1  UNL1        0.0621
     34 H           2.9132   -0.1546    0.0000 H       1  UNL1        0.0621
     35 H           2.9132    0.1546    0.0000 H       1  UNL1        0.0621
     36 H           6.4188    0.1546    0.0000 H       1  UNL1        0.0621
     37 H           6.4188    3.1546    0.0000 H       1  UNL1        0.0625
     38 H           2.9132    3.1546    0.0000 H       1  UNL1        0.0625
     39 H           2.9132   -3.1546    0.0000 H       1  UNL1        0.0625
     40 H           6.4188   -3.1546    0.0000 H       1  UNL1        0.0625
     41 H           1.4643   -0.6671    0.0000 H       1  UNL1        0.0618
     42 H           7.8678   -0.6671    0.0000 H       1  UNL1        0.0618
     43 H           1.4643    0.6671    0.0000 H       1  UNL1        0.0618
     44 H           7.8678    0.6671    0.0000 H       1  UNL1        0.0618
     45 H           7.8678    2.3329    0.0000 H       1  UNL1        0.0618
     46 H           1.4643    2.3329    0.0000 H       1  UNL1        0.0618
     47 H           1.4643   -2.3329    0.0000 H       1  UNL1        0.0618
     48 H           7.8678   -2.3329    0.0000 H       1  UNL1        0.0618
@<TRIPOS>BOND
     1     1    13    2
     2     2    14    2
     3     3     4    1
     4     3     5    1
     5     3     6    1
     6     3    31    1
     7     4     7    1
     8     4     8    1
     9     4    32    1
    10     5    12   ar
    11     5    15   ar
    12     6    11   ar
    13     6    16   ar
    14     7     9   ar
    15     7    17   ar
    16     8    10   ar
    17     8    18   ar
    18     9    14    1
    19     9    20   ar
    20    10    14    1
    21    10    19   ar
    22    11    13    1
    23    11    21   ar
    24    12    13    1
    25    12    22   ar
    26    15    23   ar
    27    15    36    1
    28    16    24   ar
    29    16    35    1
    30    17    25   ar
    31    17    34    1
    32    18    26   ar
    33    18    33    1
    34    19    30   ar
    35    19    37    1
    36    20    29   ar
    37    20    38    1
    38    21    28   ar
    39    21    39    1
    40    22    27   ar
    41    22    40    1
    42    23    27   ar
    43    23    42    1
    44    24    28   ar
    45    24    41    1
    46    25    29   ar
    47    25    43    1
    48    26    30   ar
    49    26    44    1
    50    27    48    1
    51    28    47    1
    52    29    46    1
    53    30    45    1
