@<TRIPOS>MOLECULE
IMPHY012300
 48 51 0 0 0
SMALL
GASTEIGER

@<TRIPOS>ATOM
      1 O           5.5103    1.5072    0.0000 O.3     1  UNL1       -0.5029
      2 O           7.2762    2.5450    0.0000 O.3     1  UNL1       -0.4914
      3 O           2.8680   -2.0484    0.0000 O.3     1  UNL1       -0.4914
      4 O           2.8680   -0.0001    0.0000 O.3     1  UNL1       -0.4914
      5 N           8.1223   -2.0212    0.0000 N.3     1  UNL1       -0.2978
      6 C           7.2641   -1.5242    0.0000 C.3     1  UNL1        0.0403
      7 C           7.2641   -0.5242    0.0000 C.ar    1  UNL1       -0.0153
      8 C           6.3981   -2.0242    0.0000 C.3     1  UNL1       -0.0072
      9 C           8.1741   -0.0174    0.0000 C.ar    1  UNL1       -0.0372
     10 C           8.9878   -1.5370    0.0000 C.3     1  UNL1        0.0032
     11 C           6.3981   -0.0242    0.0000 C.ar    1  UNL1        0.0325
     12 C           9.0134   -0.5456    0.0000 C.3     1  UNL1       -0.0144
     13 C           5.5320   -1.5242    0.0000 C.ar    1  UNL1       -0.0341
     14 C           5.5320   -0.5242    0.0000 C.ar    1  UNL1       -0.0070
     15 C           8.1821    1.0242    0.0000 C.ar    1  UNL1       -0.0127
     16 C           6.3820    1.0173    0.0000 C.ar    1  UNL1        0.1666
     17 C           8.1149   -3.0211    0.0000 C.3     1  UNL1       -0.0122
     18 C           7.2800    1.5450    0.0000 C.ar    1  UNL1        0.1622
     19 C           4.6381   -2.0589    0.0000 C.ar    1  UNL1       -0.0125
     20 C           4.6381    0.0104    0.0000 C.ar    1  UNL1       -0.0082
     21 C           3.7320   -1.5450    0.0000 C.ar    1  UNL1        0.1618
     22 C           3.7320   -0.5034    0.0000 C.ar    1  UNL1        0.1621
     23 C           8.1403    3.0484    0.0000 C.3     1  UNL1        0.0790
     24 C           2.8718   -3.0484    0.0000 C.3     1  UNL1        0.0790
     25 C           2.0000   -0.4967    0.0000 C.3     1  UNL1        0.0790
     26 H           7.2637   -2.1442    0.0000 H       1  UNL1        0.0516
     27 H           5.9995   -2.4992    0.0000 H       1  UNL1        0.0332
     28 H           6.7966   -2.4992    0.0000 H       1  UNL1        0.0332
     29 H           9.1895   -2.1232    0.0000 H       1  UNL1        0.0430
     30 H           9.6006   -1.4426    0.0000 H       1  UNL1        0.0430
     31 H           9.6205   -0.6715    0.0000 H       1  UNL1        0.0326
     32 H           9.2452    0.0295    0.0000 H       1  UNL1        0.0326
     33 H           8.7203    1.3322    0.0000 H       1  UNL1        0.0658
     34 H           7.4949   -3.0165    0.0000 H       1  UNL1        0.0391
     35 H           8.1103   -3.6411    0.0000 H       1  UNL1        0.0391
     36 H           8.7349   -3.0257    0.0000 H       1  UNL1        0.0391
     37 H           4.6453   -2.6788    0.0000 H       1  UNL1        0.0658
     38 H           4.6453    0.6304    0.0000 H       1  UNL1        0.0661
     39 H           5.5031    2.1272    0.0000 H       1  UNL1        0.2923
     40 H           8.4523    2.5126    0.0000 H       1  UNL1        0.0660
     41 H           8.6760    3.3604    0.0000 H       1  UNL1        0.0660
     42 H           7.8282    3.5841    0.0000 H       1  UNL1        0.0660
     43 H           2.2518   -3.0508    0.0000 H       1  UNL1        0.0660
     44 H           2.8742   -3.6684    0.0000 H       1  UNL1        0.0660
     45 H           3.4918   -3.0460    0.0000 H       1  UNL1        0.0660
     46 H           1.6921    0.0414    0.0000 H       1  UNL1        0.0660
     47 H           1.4619   -0.8047    0.0000 H       1  UNL1        0.0660
     48 H           2.3079   -1.0349    0.0000 H       1  UNL1        0.0660
@<TRIPOS>BOND
     1     1    16    1
     2     1    39    1
     3     2    18    1
     4     2    23    1
     5     3    21    1
     6     3    24    1
     7     4    22    1
     8     4    25    1
     9     5     6    1
    10     5    10    1
    11     5    17    1
    12     6     7    1
    13     6     8    1
    14     6    26    1
    15     7     9   ar
    16     7    11   ar
    17     8    13    1
    18     8    27    1
    19     8    28    1
    20     9    12    1
    21     9    15   ar
    22    10    12    1
    23    10    29    1
    24    10    30    1
    25    11    14    1
    26    11    16   ar
    27    12    31    1
    28    12    32    1
    29    13    14   ar
    30    13    19   ar
    31    14    20   ar
    32    15    18   ar
    33    15    33    1
    34    16    18   ar
    35    17    34    1
    36    17    35    1
    37    17    36    1
    38    19    21   ar
    39    19    37    1
    40    20    22   ar
    41    20    38    1
    42    21    22   ar
    43    23    40    1
    44    23    41    1
    45    23    42    1
    46    24    43    1
    47    24    44    1
    48    24    45    1
    49    25    46    1
    50    25    47    1
    51    25    48    1
