@<TRIPOS>MOLECULE
IMPHY002828
 42 45 0 0 0
SMALL
GASTEIGER

@<TRIPOS>ATOM
      1 O           8.1282   -1.2500    0.0000 O.3     1  UNL1       -0.5054
      2 O           5.5301    1.2500    0.0000 O.3     1  UNL1       -0.5054
      3 O           9.8766    2.7846    0.0000 O.2     1  UNL1       -0.2870
      4 O           3.7817   -2.7846    0.0000 O.2     1  UNL1       -0.2870
      5 O           9.8766   -1.2846    0.0000 O.2     1  UNL1       -0.2871
      6 O           3.7817    1.2846    0.0000 O.2     1  UNL1       -0.2871
      7 C           7.2622    0.2500    0.0000 C.ar    1  UNL1        0.0278
      8 C           6.3961   -0.2500    0.0000 C.ar    1  UNL1        0.0278
      9 C           8.9942    0.2500    0.0000 C.ar    1  UNL1        0.0744
     10 C           4.6641   -0.2500    0.0000 C.ar    1  UNL1        0.0744
     11 C           8.9942    1.2500    0.0000 C.ar    1  UNL1        0.0363
     12 C           4.6641   -1.2500    0.0000 C.ar    1  UNL1        0.0363
     13 C           5.5301    0.2500    0.0000 C.ar    1  UNL1        0.1361
     14 C           8.1282   -0.2500    0.0000 C.ar    1  UNL1        0.1361
     15 C           7.2622    1.2500    0.0000 C.ar    1  UNL1       -0.0497
     16 C           6.3961   -1.2500    0.0000 C.ar    1  UNL1       -0.0497
     17 C           8.1282    1.7500    0.0000 C.ar    1  UNL1       -0.0494
     18 C           5.5301   -1.7500    0.0000 C.ar    1  UNL1       -0.0494
     19 C           9.8882    1.7847    0.0000 C.2     1  UNL1        0.1898
     20 C           3.7702   -1.7847    0.0000 C.2     1  UNL1        0.1898
     21 C           9.8882   -0.2847    0.0000 C.2     1  UNL1        0.1906
     22 C           3.7702    0.2847    0.0000 C.2     1  UNL1        0.1906
     23 C          10.7942    1.2708    0.0000 C.2     1  UNL1        0.0004
     24 C           2.8641   -1.2708    0.0000 C.2     1  UNL1        0.0004
     25 C          10.7942    0.2292    0.0000 C.2     1  UNL1       -0.0077
     26 C           2.8641   -0.2292    0.0000 C.2     1  UNL1       -0.0077
     27 C           2.0000   -1.7742    0.0000 C.3     1  UNL1       -0.0359
     28 C          11.6583    1.7742    0.0000 C.3     1  UNL1       -0.0359
     29 H           6.9331   -1.5600    0.0000 H       1  UNL1        0.0625
     30 H           6.7252    1.5600    0.0000 H       1  UNL1        0.0625
     31 H           5.5301   -2.3700    0.0000 H       1  UNL1        0.0625
     32 H           8.1282    2.3700    0.0000 H       1  UNL1        0.0625
     33 H           2.3284    0.0829    0.0000 H       1  UNL1        0.0660
     34 H          11.3300   -0.0829    0.0000 H       1  UNL1        0.0660
     35 H           1.6879   -1.2384    0.0000 H       1  UNL1        0.0279
     36 H          11.9704    1.2384    0.0000 H       1  UNL1        0.0279
     37 H          12.1941    2.0862    0.0000 H       1  UNL1        0.0279
     38 H          11.3463    2.3099    0.0000 H       1  UNL1        0.0279
     39 H           1.4643   -2.0862    0.0000 H       1  UNL1        0.0279
     40 H           2.3121   -2.3099    0.0000 H       1  UNL1        0.0279
     41 H           8.6651   -1.5600    0.0000 H       1  UNL1        0.2922
     42 H           4.9932    1.5600    0.0000 H       1  UNL1        0.2922
@<TRIPOS>BOND
     1     1    14    1
     2     1    41    1
     3     2    13    1
     4     2    42    1
     5     3    19    2
     6     4    20    2
     7     5    21    2
     8     6    22    2
     9     7     8    1
    10     7    14   ar
    11     7    15   ar
    12     8    13   ar
    13     8    16   ar
    14     9    11   ar
    15     9    14   ar
    16     9    21    1
    17    10    12   ar
    18    10    13   ar
    19    10    22    1
    20    11    17   ar
    21    11    19    1
    22    12    18   ar
    23    12    20    1
    24    15    17   ar
    25    15    30    1
    26    16    18   ar
    27    16    29    1
    28    17    32    1
    29    18    31    1
    30    19    23    1
    31    20    24    1
    32    21    25    1
    33    22    26    1
    34    23    25    2
    35    23    28    1
    36    24    26    2
    37    24    27    1
    38    25    34    1
    39    26    33    1
    40    27    35    1
    41    27    39    1
    42    27    40    1
    43    28    36    1
    44    28    37    1
    45    28    38    1
