@<TRIPOS>MOLECULE
IMPHY017964
 14 15 0 0 0
SMALL
GASTEIGER

@<TRIPOS>ATOM
      1 O           6.7210    1.3776    0.0000 O.2     1  UNL1       -0.2914
      2 O           2.8660   -1.3776    0.0000 O.3     1  UNL1       -0.4714
      3 C           6.9939   -0.3776    0.0000 C.3     1  UNL1        0.0596
      4 C           6.4103   -1.1824    0.0000 C.3     1  UNL1        0.0338
      5 C           5.4641   -0.8776    0.0000 C.ar    1  UNL1       -0.0160
      6 C           6.4103    0.4271    0.0000 C.2     1  UNL1        0.1722
      7 C           5.4641    0.1224    0.0000 C.ar    1  UNL1        0.0309
      8 C           7.8029   -0.9654    0.0000 C.3     1  UNL1        0.0080
      9 C           7.8029    0.2102    0.0000 C.3     1  UNL1        0.0080
     10 C           4.5981   -1.3776    0.0000 C.ar    1  UNL1        0.0327
     11 C           4.5981    0.6224    0.0000 C.ar    1  UNL1        0.0056
     12 C           3.7321   -0.8776    0.0000 C.ar    1  UNL1        0.1384
     13 C           3.7321    0.1224    0.0000 C.ar    1  UNL1        0.0370
     14 C           2.0000   -0.8776    0.0000 C.3     1  UNL1        0.2525
@<TRIPOS>BOND
     1     1     6    2
     2     2    12    1
     3     2    14    1
     4     3     4    1
     5     3     6    1
     6     3     8    1
     7     3     9    1
     8     4     5    1
     9     5     7   ar
    10     5    10   ar
    11     6     7    1
    12     7    11   ar
    13    10    12   ar
    14    11    13   ar
    15    12    13   ar
