@<TRIPOS>MOLECULE
IMPHY009987
 32 32 0 0 0
SMALL
GASTEIGER

@<TRIPOS>ATOM
      1 O           8.0622   -1.1900    0.0000 O.3     1  UNL1       -0.3915
      2 O           4.5981    1.8100    0.0000 O.2     1  UNL1       -0.2876
      3 C           6.3301    0.8100    0.0000 C.3     1  UNL1       -0.0042
      4 C           7.1962    0.3100    0.0000 C.3     1  UNL1       -0.0173
      5 C           7.1962   -0.6900    0.0000 C.3     1  UNL1        0.0595
      6 C           5.4641    0.3100    0.0000 C.2     1  UNL1        0.0012
      7 C           6.3301   -1.1900    0.0000 C.3     1  UNL1       -0.0079
      8 C           6.8301    1.6760    0.0000 C.3     1  UNL1       -0.0556
      9 C           5.8301    1.6760    0.0000 C.3     1  UNL1       -0.0556
     10 C           5.4641   -0.6900    0.0000 C.2     1  UNL1       -0.0743
     11 C           4.5981    0.8100    0.0000 C.2     1  UNL1        0.1820
     12 C           3.7320    0.3100    0.0000 C.2     1  UNL1       -0.0188
     13 C           2.8660    0.8100    0.0000 C.2     1  UNL1       -0.0835
     14 C           2.0000    0.3100    0.0000 C.3     1  UNL1       -0.0464
     15 H           7.8067    0.2023    0.0000 H       1  UNL1        0.0299
     16 H           7.4082    0.8926    0.0000 H       1  UNL1        0.0299
     17 H           7.7331   -0.3800    0.0000 H       1  UNL1        0.0596
     18 H           5.9316   -1.6650    0.0000 H       1  UNL1        0.0332
     19 H           6.7287   -1.6650    0.0000 H       1  UNL1        0.0332
     20 H           6.3671    1.9860    0.0000 H       1  UNL1        0.0238
     21 H           5.5201    2.2130    0.0000 H       1  UNL1        0.0238
     22 H           5.2932    1.3660    0.0000 H       1  UNL1        0.0238
     23 H           7.3671    1.3660    0.0000 H       1  UNL1        0.0238
     24 H           7.1401    2.2130    0.0000 H       1  UNL1        0.0238
     25 H           6.2932    1.9860    0.0000 H       1  UNL1        0.0238
     26 H           4.9272   -1.0000    0.0000 H       1  UNL1        0.0577
     27 H           8.0622   -1.8100    0.0000 H       1  UNL1        0.2098
     28 H           3.7320   -0.3100    0.0000 H       1  UNL1        0.0653
     29 H           2.8660    1.4300    0.0000 H       1  UNL1        0.0570
     30 H           1.6900    0.8469    0.0000 H       1  UNL1        0.0272
     31 H           1.4631    0.0000    0.0000 H       1  UNL1        0.0272
     32 H           2.3100   -0.2269    0.0000 H       1  UNL1        0.0272
@<TRIPOS>BOND
     1     1     5    1
     2     1    27    1
     3     2    11    2
     4     3     4    1
     5     3     6    1
     6     3     8    1
     7     3     9    1
     8     4     5    1
     9     4    15    1
    10     4    16    1
    11     5     7    1
    12     5    17    1
    13     6    10    2
    14     6    11    1
    15     7    10    1
    16     7    18    1
    17     7    19    1
    18     8    23    1
    19     8    24    1
    20     8    25    1
    21     9    20    1
    22     9    21    1
    23     9    22    1
    24    10    26    1
    25    11    12    1
    26    12    13    2
    27    12    28    1
    28    13    14    1
    29    13    29    1
    30    14    30    1
    31    14    31    1
    32    14    32    1
