@<TRIPOS>MOLECULE
IMPHY014054
 35 36 0 0 0
SMALL
GASTEIGER

@<TRIPOS>ATOM
      1 C           3.7320    0.7500    0.0000 C.ar    1  UNL1       -0.0367
      2 C           3.7320   -0.2500    0.0000 C.ar    1  UNL1       -0.0182
      3 C           4.6260    1.2847    0.0000 C.3     1  UNL1       -0.0232
      4 C           2.8660   -0.7500    0.0000 C.ar    1  UNL1       -0.0374
      5 C           5.5321    0.7708    0.0000 C.3     1  UNL1       -0.0277
      6 C           2.8660   -1.7500    0.0000 C.3     1  UNL1       -0.0209
      7 C           5.5321   -0.2708    0.0000 C.2     1  UNL1       -0.0717
      8 C           2.8660    1.2500    0.0000 C.ar    1  UNL1       -0.0467
      9 C           4.6260   -0.7847    0.0000 C.2     1  UNL1       -0.0551
     10 C           2.0000   -0.2500    0.0000 C.ar    1  UNL1       -0.0575
     11 C           2.0000    0.7500    0.0000 C.ar    1  UNL1       -0.0583
     12 C           2.0000   -2.2500    0.0000 C.3     1  UNL1       -0.0586
     13 C           3.7320   -2.2500    0.0000 C.3     1  UNL1       -0.0586
     14 C           6.3961   -0.7742    0.0000 C.3     1  UNL1       -0.0435
     15 C           2.8660    2.2500    0.0000 C.3     1  UNL1       -0.0394
     16 H           5.0196    1.7637    0.0000 H       1  UNL1        0.0316
     17 H           4.2214    1.7544    0.0000 H       1  UNL1        0.0316
     18 H           6.1429    0.6647    0.0000 H       1  UNL1        0.0313
     19 H           5.7411    1.3545    0.0000 H       1  UNL1        0.0313
     20 H           2.8660   -2.3700    0.0000 H       1  UNL1        0.0344
     21 H           4.6188   -1.4046    0.0000 H       1  UNL1        0.0623
     22 H           1.4631   -0.5600    0.0000 H       1  UNL1        0.0621
     23 H           1.4631    1.0600    0.0000 H       1  UNL1        0.0620
     24 H           1.6900   -1.7131    0.0000 H       1  UNL1        0.0235
     25 H           1.4631   -2.5600    0.0000 H       1  UNL1        0.0235
     26 H           2.3100   -2.7869    0.0000 H       1  UNL1        0.0235
     27 H           3.4220   -2.7869    0.0000 H       1  UNL1        0.0235
     28 H           4.2690   -2.5600    0.0000 H       1  UNL1        0.0235
     29 H           4.0420   -1.7131    0.0000 H       1  UNL1        0.0235
     30 H           6.0841   -1.3099    0.0000 H       1  UNL1        0.0274
     31 H           6.9319   -1.0862    0.0000 H       1  UNL1        0.0274
     32 H           6.7082   -0.2384    0.0000 H       1  UNL1        0.0274
     33 H           3.4860    2.2500    0.0000 H       1  UNL1        0.0278
     34 H           2.8660    2.8700    0.0000 H       1  UNL1        0.0278
     35 H           2.2460    2.2500    0.0000 H       1  UNL1        0.0278
@<TRIPOS>BOND
     1     1     2   ar
     2     1     3    1
     3     1     8   ar
     4     2     4   ar
     5     2     9    1
     6     3     5    1
     7     3    16    1
     8     3    17    1
     9     4     6    1
    10     4    10   ar
    11     5     7    1
    12     5    18    1
    13     5    19    1
    14     6    12    1
    15     6    13    1
    16     6    20    1
    17     7     9    2
    18     7    14    1
    19     8    11   ar
    20     8    15    1
    21     9    21    1
    22    10    11   ar
    23    10    22    1
    24    11    23    1
    25    12    24    1
    26    12    25    1
    27    12    26    1
    28    13    27    1
    29    13    28    1
    30    13    29    1
    31    14    30    1
    32    14    31    1
    33    14    32    1
    34    15    33    1
    35    15    34    1
    36    15    35    1
