@<TRIPOS>MOLECULE
IMPHY005739
 45 50 0 0 0
SMALL
GASTEIGER

@<TRIPOS>ATOM
      1 O           2.5405    0.3400    0.0000 O.3     1  UNL1       -0.3908
      2 O           5.9658    3.5673    0.0000 O.3     1  UNL1       -0.4523
      3 O           4.5204    4.4167    0.0000 O.3     1  UNL1       -0.4526
      4 O           6.9666   -3.5278    0.0000 O.3     1  UNL1       -0.4526
      5 O           5.4611   -4.4125    0.0000 O.3     1  UNL1       -0.4526
      6 N           6.0427    0.3368    0.0000 N.3     1  UNL1       -0.2935
      7 C           4.3107    0.3368    0.0000 C.3     1  UNL1        0.0305
      8 C           5.1767   -0.1632    0.0000 C.3     1  UNL1        0.0452
      9 C           3.4007   -0.1700    0.0000 C.3     1  UNL1        0.0677
     10 C           4.3107    1.3368    0.0000 C.ar    1  UNL1       -0.0319
     11 C           5.1928   -1.2047    0.0000 C.ar    1  UNL1       -0.0227
     12 C           3.3926   -1.2116    0.0000 C.3     1  UNL1       -0.0005
     13 C           6.0427    1.3368    0.0000 C.3     1  UNL1        0.0282
     14 C           4.2947   -1.7324    0.0000 C.ar    1  UNL1       -0.0365
     15 C           5.1767    1.8368    0.0000 C.ar    1  UNL1        0.0156
     16 C           6.1447   -1.7253    0.0000 C.ar    1  UNL1       -0.0112
     17 C           3.4007    1.8437    0.0000 C.ar    1  UNL1       -0.0542
     18 C           6.9088   -0.1632    0.0000 C.3     1  UNL1       -0.0118
     19 C           5.1928    2.8783    0.0000 C.ar    1  UNL1        0.1709
     20 C           4.2864   -2.8174    0.0000 C.ar    1  UNL1       -0.0126
     21 C           6.1614   -2.8102    0.0000 C.ar    1  UNL1        0.1666
     22 C           4.2947    3.4061    0.0000 C.ar    1  UNL1        0.1666
     23 C           5.2260   -3.3599    0.0000 C.ar    1  UNL1        0.1665
     24 C           3.3926    2.8853    0.0000 C.ar    1  UNL1       -0.0159
     25 C           5.5511    4.5161    0.0000 C.3     1  UNL1        0.2332
     26 C           6.5347   -4.5161    0.0000 C.3     1  UNL1        0.2332
     27 H           3.5778    0.7675    0.0000 H       1  UNL1        0.0393
     28 H           5.9161   -0.5825    0.0000 H       1  UNL1        0.0519
     29 H           2.8608   -0.4748    0.0000 H       1  UNL1        0.0603
     30 H           2.7826   -1.1008    0.0000 H       1  UNL1        0.0338
     31 H           3.1791   -1.7937    0.0000 H       1  UNL1        0.0338
     32 H           6.6533    1.2292    0.0000 H       1  UNL1        0.0477
     33 H           6.2548    1.9194    0.0000 H       1  UNL1        0.0477
     34 H           6.6756   -1.4050    0.0000 H       1  UNL1        0.0659
     35 H           2.8674    1.5275    0.0000 H       1  UNL1        0.0622
     36 H           6.5988   -0.7001    0.0000 H       1  UNL1        0.0391
     37 H           7.4457   -0.4732    0.0000 H       1  UNL1        0.0391
     38 H           7.2188    0.3738    0.0000 H       1  UNL1        0.0391
     39 H           3.7482   -3.1253    0.0000 H       1  UNL1        0.0658
     40 H           2.0000    0.0362    0.0000 H       1  UNL1        0.2098
     41 H           2.8545    3.1932    0.0000 H       1  UNL1        0.0655
     42 H           6.1422    4.7033    0.0000 H       1  UNL1        0.1166
     43 H           5.4271    5.1235    0.0000 H       1  UNL1        0.1166
     44 H           6.4106   -5.1235    0.0000 H       1  UNL1        0.1166
     45 H           7.1258   -4.7033    0.0000 H       1  UNL1        0.1166
@<TRIPOS>BOND
     1     9     1    1
     2     1    40    1
     3     2    19    1
     4     2    25    1
     5     3    22    1
     6     3    25    1
     7     4    21    1
     8     4    26    1
     9     5    23    1
    10     5    26    1
    11     6     8    1
    12     6    13    1
    13     6    18    1
    14     7     8    1
    15     7     9    1
    16     7    10    1
    17     7    27    1
    18     8    11    1
    19     8    28    1
    20     9    12    1
    21     9    29    1
    22    10    15   ar
    23    10    17   ar
    24    11    14   ar
    25    11    16   ar
    26    12    14    1
    27    12    30    1
    28    12    31    1
    29    13    15    1
    30    13    32    1
    31    13    33    1
    32    14    20   ar
    33    15    19   ar
    34    16    21   ar
    35    16    34    1
    36    17    24   ar
    37    17    35    1
    38    18    36    1
    39    18    37    1
    40    18    38    1
    41    19    22   ar
    42    20    23   ar
    43    20    39    1
    44    21    23   ar
    45    22    24   ar
    46    24    41    1
    47    25    42    1
    48    25    43    1
    49    26    44    1
    50    26    45    1
