@<TRIPOS>MOLECULE
IMPHY016282
 30 29 0 0 0
SMALL
GASTEIGER

@<TRIPOS>ATOM
      1 O           2.8660    2.1900    0.0000 O.3     1  UNL1       -0.4649
      2 O           3.7320    0.6900    0.0000 O.2     1  UNL1       -0.2456
      3 C           6.3301   -0.8100    0.0000 C.3     1  UNL1       -0.0528
      4 C           7.1962   -1.3100    0.0000 C.3     1  UNL1       -0.0533
      5 C           6.3301    0.1900    0.0000 C.3     1  UNL1       -0.0496
      6 C           7.1962   -2.3100    0.0000 C.3     1  UNL1       -0.0559
      7 C           5.4641    0.6900    0.0000 C.3     1  UNL1       -0.0343
      8 C           8.0622   -2.8100    0.0000 C.3     1  UNL1       -0.0653
      9 C           5.4641    1.6900    0.0000 C.2     1  UNL1       -0.0773
     10 C           4.5981    2.1900    0.0000 C.2     1  UNL1        0.0186
     11 C           3.7320    1.6900    0.0000 C.2     1  UNL1        0.3314
     12 C           2.0000    1.6900    0.0000 C.3     1  UNL1        0.0820
     13 H           5.7196   -0.7023    0.0000 H       1  UNL1        0.0265
     14 H           6.1181   -1.3926    0.0000 H       1  UNL1        0.0265
     15 H           7.8067   -1.4177    0.0000 H       1  UNL1        0.0265
     16 H           7.4082   -0.7274    0.0000 H       1  UNL1        0.0265
     17 H           6.9407    0.0823    0.0000 H       1  UNL1        0.0268
     18 H           6.5422    0.7726    0.0000 H       1  UNL1        0.0268
     19 H           6.5856   -2.2023    0.0000 H       1  UNL1        0.0263
     20 H           6.9841   -2.8926    0.0000 H       1  UNL1        0.0263
     21 H           4.8535    0.7977    0.0000 H       1  UNL1        0.0307
     22 H           5.2520    0.1074    0.0000 H       1  UNL1        0.0307
     23 H           7.7522   -3.3469    0.0000 H       1  UNL1        0.0230
     24 H           8.5991   -3.1200    0.0000 H       1  UNL1        0.0230
     25 H           8.3722   -2.2731    0.0000 H       1  UNL1        0.0230
     26 H           6.0010    2.0000    0.0000 H       1  UNL1        0.0574
     27 H           4.5981    2.8100    0.0000 H       1  UNL1        0.0686
     28 H           1.6900    2.2269    0.0000 H       1  UNL1        0.0661
     29 H           1.4631    1.3800    0.0000 H       1  UNL1        0.0661
     30 H           2.3100    1.1531    0.0000 H       1  UNL1        0.0661
@<TRIPOS>BOND
     1     1    11    1
     2     1    12    1
     3     2    11    2
     4     3     4    1
     5     3     5    1
     6     3    13    1
     7     3    14    1
     8     4     6    1
     9     4    15    1
    10     4    16    1
    11     5     7    1
    12     5    17    1
    13     5    18    1
    14     6     8    1
    15     6    19    1
    16     6    20    1
    17     7     9    1
    18     7    21    1
    19     7    22    1
    20     8    23    1
    21     8    24    1
    22     8    25    1
    23     9    10    2
    24     9    26    1
    25    10    11    1
    26    10    27    1
    27    12    28    1
    28    12    29    1
    29    12    30    1
