@<TRIPOS>MOLECULE
IMPHY017267
 55 57 0 0 0
SMALL
GASTEIGER

@<TRIPOS>ATOM
      1 O           2.4900   -2.4134    0.0000 O.3     1  UNL1       -0.4675
      2 O           3.9999   -3.2620    0.0000 O.2     1  UNL1       -0.2502
      3 C           4.8738    0.0046    0.0000 C.3     1  UNL1       -0.0215
      4 C           4.8738   -0.9954    0.0000 C.3     1  UNL1       -0.0162
      5 C           5.7398    0.5046    0.0000 C.3     1  UNL1       -0.0142
      6 C           3.9798   -1.5300    0.0000 C.3     1  UNL1        0.0685
      7 C           3.9798    0.5393    0.0000 C.3     1  UNL1       -0.0468
      8 C           6.6058    0.0046    0.0000 C.2     1  UNL1       -0.0690
      9 C           5.7398   -1.4954    0.0000 C.3     1  UNL1       -0.0301
     10 C           3.0738   -1.0162    0.0000 C.3     1  UNL1       -0.0372
     11 C           5.7238    1.5461    0.0000 C.3     1  UNL1       -0.0452
     12 C           3.0738    0.0254    0.0000 C.3     1  UNL1       -0.0515
     13 C           4.8738    1.0046    0.0000 C.3     1  UNL1       -0.0587
     14 C           7.5239    1.5531    0.0000 C.3     1  UNL1       -0.0106
     15 C           7.5158    0.5115    0.0000 C.3     1  UNL1       -0.0226
     16 C           6.6218    2.0739    0.0000 C.3     1  UNL1       -0.0433
     17 C           6.6058   -0.9954    0.0000 C.2     1  UNL1       -0.0841
     18 C           4.4898   -2.3902    0.0000 C.3     1  UNL1       -0.0491
     19 C           3.4899   -2.4018    0.0000 C.2     1  UNL1        0.3131
     20 C           8.5238    1.5492    0.0000 C.3     1  UNL1       -0.0558
     21 C           8.0272    2.4172    0.0000 C.2     1  UNL1       -0.0849
     22 C           7.5305    3.2851    0.0000 C.2     1  UNL1       -0.1021
     23 C           2.0000   -3.2851    0.0000 C.3     1  UNL1        0.0817
     24 H           4.8803   -1.8454    0.0000 H       1  UNL1        0.0320
     25 H           6.4726    0.9353    0.0000 H       1  UNL1        0.0351
     26 H           4.3844    1.0091    0.0000 H       1  UNL1        0.0271
     27 H           3.5862    1.0183    0.0000 H       1  UNL1        0.0271
     28 H           5.3413   -1.9703    0.0000 H       1  UNL1        0.0311
     29 H           6.1383   -1.9703    0.0000 H       1  UNL1        0.0311
     30 H           2.4629   -0.9101    0.0000 H       1  UNL1        0.0276
     31 H           2.8647   -1.5999    0.0000 H       1  UNL1        0.0276
     32 H           5.5057    2.1265    0.0000 H       1  UNL1        0.0271
     33 H           5.1146    1.4306    0.0000 H       1  UNL1        0.0271
     34 H           2.8647    0.6091    0.0000 H       1  UNL1        0.0266
     35 H           2.4629   -0.0807    0.0000 H       1  UNL1        0.0266
     36 H           5.4938    1.0046    0.0000 H       1  UNL1        0.0235
     37 H           4.8738    1.6246    0.0000 H       1  UNL1        0.0235
     38 H           4.2538    1.0046    0.0000 H       1  UNL1        0.0235
     39 H           7.7204   -0.0738    0.0000 H       1  UNL1        0.0318
     40 H           8.1275    0.6128    0.0000 H       1  UNL1        0.0318
     41 H           7.0191    2.5498    0.0000 H       1  UNL1        0.0274
     42 H           6.2208    2.5468    0.0000 H       1  UNL1        0.0274
     43 H           7.1428   -1.3054    0.0000 H       1  UNL1        0.0572
     44 H           3.9565   -2.7064    0.0000 H       1  UNL1        0.0240
     45 H           4.8060   -2.9235    0.0000 H       1  UNL1        0.0240
     46 H           5.0231   -2.0740    0.0000 H       1  UNL1        0.0240
     47 H           8.5215    0.9292    0.0000 H       1  UNL1        0.0238
     48 H           9.1438    1.5468    0.0000 H       1  UNL1        0.0238
     49 H           8.5262    2.1692    0.0000 H       1  UNL1        0.0238
     50 H           8.6472    2.4148    0.0000 H       1  UNL1        0.0572
     51 H           7.8426    3.8208    0.0000 H       1  UNL1        0.0532
     52 H           6.9105    3.2875    0.0000 H       1  UNL1        0.0532
     53 H           1.4595   -2.9813    0.0000 H       1  UNL1        0.0661
     54 H           1.6962   -3.8256    0.0000 H       1  UNL1        0.0661
     55 H           2.5405   -3.5889    0.0000 H       1  UNL1        0.0661
@<TRIPOS>BOND
     1     1    19    1
     2     1    23    1
     3     2    19    2
     4     3     4    1
     5     3     5    1
     6     3     7    1
     7     3    13    1
     8     4     6    1
     9     4     9    1
    10     4    24    1
    11     5     8    1
    12     5    11    1
    13     5    25    1
    14     6    10    1
    15     6    18    1
    16     6    19    1
    17     7    12    1
    18     7    26    1
    19     7    27    1
    20     8    15    1
    21     8    17    2
    22     9    17    1
    23     9    28    1
    24     9    29    1
    25    10    12    1
    26    10    30    1
    27    10    31    1
    28    11    16    1
    29    11    32    1
    30    11    33    1
    31    12    34    1
    32    12    35    1
    33    13    36    1
    34    13    37    1
    35    13    38    1
    36    14    15    1
    37    14    16    1
    38    14    20    1
    39    14    21    1
    40    15    39    1
    41    15    40    1
    42    16    41    1
    43    16    42    1
    44    17    43    1
    45    18    44    1
    46    18    45    1
    47    18    46    1
    48    20    47    1
    49    20    48    1
    50    20    49    1
    51    21    22    2
    52    21    50    1
    53    22    51    1
    54    22    52    1
    55    23    53    1
    56    23    54    1
    57    23    55    1
