@<TRIPOS>MOLECULE
IMPHY008570
 48 49 0 0 0
SMALL
GASTEIGER

@<TRIPOS>ATOM
      1 O           2.5369   -1.0000    0.0000 O.3     1  UNL1       -0.5062
      2 O           6.0010   -1.0000    0.0000 O.3     1  UNL1       -0.5062
      3 C           4.2690    0.0000    0.0000 C.3     1  UNL1        0.0185
      4 C           3.4030    0.5000    0.0000 C.3     1  UNL1       -0.0356
      5 C           4.2690   -1.0000    0.0000 C.ar    1  UNL1        0.0023
      6 C           5.1350    0.5000    0.0000 C.ar    1  UNL1        0.0023
      7 C           3.4030    1.5000    0.0000 C.3     1  UNL1       -0.0618
      8 C           2.5369    0.0000    0.0000 C.3     1  UNL1       -0.0618
      9 C           3.4030   -1.5000    0.0000 C.ar    1  UNL1        0.1235
     10 C           6.0010    0.0000    0.0000 C.ar    1  UNL1        0.1235
     11 C           5.1350   -1.5000    0.0000 C.ar    1  UNL1       -0.0516
     12 C           5.1350    1.5000    0.0000 C.ar    1  UNL1       -0.0516
     13 C           3.4030   -2.5000    0.0000 C.ar    1  UNL1       -0.0085
     14 C           6.8671    0.5000    0.0000 C.ar    1  UNL1       -0.0085
     15 C           5.1350   -2.5000    0.0000 C.ar    1  UNL1       -0.0497
     16 C           6.0010    2.0000    0.0000 C.ar    1  UNL1       -0.0497
     17 C           4.2690   -3.0000    0.0000 C.ar    1  UNL1       -0.0524
     18 C           6.8671    1.5000    0.0000 C.ar    1  UNL1       -0.0524
     19 C           7.7331    0.0000    0.0000 C.3     1  UNL1       -0.0362
     20 C           2.5369   -3.0000    0.0000 C.3     1  UNL1       -0.0362
     21 C           6.0010    3.0000    0.0000 C.3     1  UNL1       -0.0397
     22 C           6.0010   -3.0000    0.0000 C.3     1  UNL1       -0.0397
     23 H           4.2690    0.6200    0.0000 H       1  UNL1        0.0402
     24 H           3.4030   -0.1200    0.0000 H       1  UNL1        0.0304
     25 H           4.0230    1.5000    0.0000 H       1  UNL1        0.0233
     26 H           3.4030    2.1200    0.0000 H       1  UNL1        0.0233
     27 H           2.7830    1.5000    0.0000 H       1  UNL1        0.0233
     28 H           2.2269    0.5369    0.0000 H       1  UNL1        0.0233
     29 H           2.0000   -0.3100    0.0000 H       1  UNL1        0.0233
     30 H           2.8469   -0.5369    0.0000 H       1  UNL1        0.0233
     31 H           4.5981    1.8100    0.0000 H       1  UNL1        0.0624
     32 H           5.6720   -1.1900    0.0000 H       1  UNL1        0.0624
     33 H           7.4040    1.8100    0.0000 H       1  UNL1        0.0624
     34 H           4.2690   -3.6200    0.0000 H       1  UNL1        0.0624
     35 H           7.4231   -0.5369    0.0000 H       1  UNL1        0.0279
     36 H           8.2700   -0.3100    0.0000 H       1  UNL1        0.0279
     37 H           8.0431    0.5369    0.0000 H       1  UNL1        0.0279
     38 H           2.2269   -2.4631    0.0000 H       1  UNL1        0.0279
     39 H           2.0000   -3.3100    0.0000 H       1  UNL1        0.0279
     40 H           2.8469   -3.5369    0.0000 H       1  UNL1        0.0279
     41 H           6.6210    3.0000    0.0000 H       1  UNL1        0.0278
     42 H           6.0010    3.6200    0.0000 H       1  UNL1        0.0278
     43 H           5.6910   -3.5369    0.0000 H       1  UNL1        0.0278
     44 H           6.5380   -3.3100    0.0000 H       1  UNL1        0.0278
     45 H           6.3110   -2.4631    0.0000 H       1  UNL1        0.0278
     46 H           5.3810    3.0000    0.0000 H       1  UNL1        0.0278
     47 H           2.0000   -1.3100    0.0000 H       1  UNL1        0.2922
     48 H           6.5380   -1.3100    0.0000 H       1  UNL1        0.2922
@<TRIPOS>BOND
     1     1     9    1
     2     1    47    1
     3     2    10    1
     4     2    48    1
     5     3     4    1
     6     3     5    1
     7     3     6    1
     8     3    23    1
     9     4     7    1
    10     4     8    1
    11     4    24    1
    12     5     9   ar
    13     5    11   ar
    14     6    10   ar
    15     6    12   ar
    16     7    25    1
    17     7    26    1
    18     7    27    1
    19     8    28    1
    20     8    29    1
    21     8    30    1
    22     9    13   ar
    23    10    14   ar
    24    11    15   ar
    25    11    32    1
    26    12    16   ar
    27    12    31    1
    28    13    17   ar
    29    13    20    1
    30    14    18   ar
    31    14    19    1
    32    15    17   ar
    33    15    22    1
    34    16    18   ar
    35    16    21    1
    36    17    34    1
    37    18    33    1
    38    19    35    1
    39    19    36    1
    40    19    37    1
    41    20    38    1
    42    20    39    1
    43    20    40    1
    44    21    41    1
    45    21    42    1
    46    21    46    1
    47    22    43    1
    48    22    44    1
    49    22    45    1
