@<TRIPOS>MOLECULE
IMPHY000031
 137 136 0 0 0
SMALL
GASTEIGER

@<TRIPOS>ATOM
      1 O          16.7224    5.7500    0.0000 O.3     1  UNL1       -0.4544
      2 O          14.1244    5.2500    0.0000 O.3     1  UNL1       -0.4608
      3 O          14.9904    3.7500    0.0000 O.3     1  UNL1       -0.4608
      4 O          17.5885    4.2500    0.0000 O.2     1  UNL1       -0.2508
      5 O          13.2583    6.7500    0.0000 O.2     1  UNL1       -0.2509
      6 O          15.8564    2.2500    0.0000 O.2     1  UNL1       -0.2509
      7 C          22.7846    5.2500    0.0000 C.3     1  UNL1       -0.0531
      8 C          23.6506    5.7500    0.0000 C.3     1  UNL1       -0.0531
      9 C           8.0622    5.7500    0.0000 C.3     1  UNL1       -0.0531
     10 C          12.3923   -1.7500    0.0000 C.3     1  UNL1       -0.0531
     11 C           7.1962    5.2500    0.0000 C.3     1  UNL1       -0.0531
     12 C          11.5263   -2.2500    0.0000 C.3     1  UNL1       -0.0531
     13 C          21.9186    5.7500    0.0000 C.3     1  UNL1       -0.0531
     14 C          24.5167    5.2500    0.0000 C.3     1  UNL1       -0.0531
     15 C           8.9282    5.2500    0.0000 C.3     1  UNL1       -0.0531
     16 C          12.3923   -0.7500    0.0000 C.3     1  UNL1       -0.0531
     17 C           6.3301    5.7500    0.0000 C.3     1  UNL1       -0.0531
     18 C          11.5263   -3.2500    0.0000 C.3     1  UNL1       -0.0531
     19 C          21.0526    5.2500    0.0000 C.3     1  UNL1       -0.0530
     20 C          25.3827    5.7500    0.0000 C.3     1  UNL1       -0.0531
     21 C           9.7942    5.7500    0.0000 C.3     1  UNL1       -0.0530
     22 C          13.2583   -0.2500    0.0000 C.3     1  UNL1       -0.0530
     23 C           5.4641    5.2500    0.0000 C.3     1  UNL1       -0.0531
     24 C          10.6603   -3.7500    0.0000 C.3     1  UNL1       -0.0531
     25 C          20.1865    5.7500    0.0000 C.3     1  UNL1       -0.0526
     26 C          26.2487    5.2500    0.0000 C.3     1  UNL1       -0.0531
     27 C          10.6603    5.2500    0.0000 C.3     1  UNL1       -0.0526
     28 C          13.2583    0.7500    0.0000 C.3     1  UNL1       -0.0526
     29 C           4.5981    5.7500    0.0000 C.3     1  UNL1       -0.0531
     30 C          10.6603   -4.7500    0.0000 C.3     1  UNL1       -0.0531
     31 C          19.3205    5.2500    0.0000 C.3     1  UNL1       -0.0430
     32 C          27.1147    5.7500    0.0000 C.3     1  UNL1       -0.0533
     33 C          11.5263    5.7500    0.0000 C.3     1  UNL1       -0.0430
     34 C          14.1244    1.2500    0.0000 C.3     1  UNL1       -0.0430
     35 C           3.7320    5.2500    0.0000 C.3     1  UNL1       -0.0533
     36 C           9.7942   -5.2500    0.0000 C.3     1  UNL1       -0.0533
     37 C          18.4545    5.7500    0.0000 C.3     1  UNL1        0.0450
     38 C          12.3923    5.2500    0.0000 C.3     1  UNL1        0.0449
     39 C          14.1244    2.2500    0.0000 C.3     1  UNL1        0.0449
     40 C          27.9808    5.2500    0.0000 C.3     1  UNL1       -0.0559
     41 C           2.8660    5.7500    0.0000 C.3     1  UNL1       -0.0559
     42 C           9.7942   -6.2500    0.0000 C.3     1  UNL1       -0.0559
     43 C          15.8564    5.2500    0.0000 C.3     1  UNL1        0.1706
     44 C          17.5885    5.2500    0.0000 C.2     1  UNL1        0.3075
     45 C          14.9904    5.7500    0.0000 C.3     1  UNL1        0.1325
     46 C          15.8564    4.2500    0.0000 C.3     1  UNL1        0.1325
     47 C          13.2583    5.7500    0.0000 C.2     1  UNL1        0.3072
     48 C          14.9904    2.7500    0.0000 C.2     1  UNL1        0.3072
     49 C          28.8468    5.7500    0.0000 C.3     1  UNL1       -0.0653
     50 C           2.0000    5.2500    0.0000 C.3     1  UNL1       -0.0653
     51 C           8.9282   -6.7500    0.0000 C.3     1  UNL1       -0.0653
     52 H          22.3861    4.7750    0.0000 H       1  UNL1        0.0265
     53 H          23.1831    4.7750    0.0000 H       1  UNL1        0.0265
     54 H          24.0492    6.2250    0.0000 H       1  UNL1        0.0265
     55 H          23.2521    6.2250    0.0000 H       1  UNL1        0.0265
     56 H          12.6044   -2.3326    0.0000 H       1  UNL1        0.0265
     57 H          13.0029   -1.6423    0.0000 H       1  UNL1        0.0265
     58 H           8.4607    6.2250    0.0000 H       1  UNL1        0.0265
     59 H           7.6636    6.2250    0.0000 H       1  UNL1        0.0265
     60 H           6.7976    4.7750    0.0000 H       1  UNL1        0.0265
     61 H           7.5947    4.7750    0.0000 H       1  UNL1        0.0265
     62 H          11.3142   -1.6674    0.0000 H       1  UNL1        0.0265
     63 H          10.9157   -2.3577    0.0000 H       1  UNL1        0.0265
     64 H          22.3171    6.2250    0.0000 H       1  UNL1        0.0265
     65 H          21.5201    6.2250    0.0000 H       1  UNL1        0.0265
     66 H          24.1181    4.7750    0.0000 H       1  UNL1        0.0265
     67 H          24.9152    4.7750    0.0000 H       1  UNL1        0.0265
     68 H          12.1803   -0.1674    0.0000 H       1  UNL1        0.0265
     69 H          11.7817   -0.8577    0.0000 H       1  UNL1        0.0265
     70 H           8.5297    4.7750    0.0000 H       1  UNL1        0.0265
     71 H           9.3267    4.7750    0.0000 H       1  UNL1        0.0265
     72 H           6.7287    6.2250    0.0000 H       1  UNL1        0.0265
     73 H           5.9316    6.2250    0.0000 H       1  UNL1        0.0265
     74 H          11.7383   -3.8326    0.0000 H       1  UNL1        0.0265
     75 H          12.1369   -3.1423    0.0000 H       1  UNL1        0.0265
     76 H          20.6540    4.7750    0.0000 H       1  UNL1        0.0265
     77 H          21.4511    4.7750    0.0000 H       1  UNL1        0.0265
     78 H          25.7812    6.2250    0.0000 H       1  UNL1        0.0265
     79 H          24.9842    6.2250    0.0000 H       1  UNL1        0.0265
     80 H          10.1928    6.2250    0.0000 H       1  UNL1        0.0265
     81 H           9.3957    6.2250    0.0000 H       1  UNL1        0.0265
     82 H          13.4704   -0.8326    0.0000 H       1  UNL1        0.0265
     83 H          13.8689   -0.1423    0.0000 H       1  UNL1        0.0265
     84 H           5.0656    4.7750    0.0000 H       1  UNL1        0.0265
     85 H           5.8626    4.7750    0.0000 H       1  UNL1        0.0265
     86 H          10.4482   -3.1674    0.0000 H       1  UNL1        0.0265
     87 H          10.0497   -3.8577    0.0000 H       1  UNL1        0.0265
     88 H          20.5851    6.2250    0.0000 H       1  UNL1        0.0265
     89 H          19.7880    6.2250    0.0000 H       1  UNL1        0.0265
     90 H          25.8502    4.7750    0.0000 H       1  UNL1        0.0265
     91 H          26.6472    4.7750    0.0000 H       1  UNL1        0.0265
     92 H          10.2617    4.7750    0.0000 H       1  UNL1        0.0265
     93 H          11.0588    4.7750    0.0000 H       1  UNL1        0.0265
     94 H          13.0463    1.3326    0.0000 H       1  UNL1        0.0265
     95 H          12.6477    0.6423    0.0000 H       1  UNL1        0.0265
     96 H          10.8723   -5.3326    0.0000 H       1  UNL1        0.0265
     97 H           4.9966    6.2250    0.0000 H       1  UNL1        0.0265
     98 H           4.1996    6.2250    0.0000 H       1  UNL1        0.0265
     99 H          11.2708   -4.6423    0.0000 H       1  UNL1        0.0265
    100 H          18.9220    4.7750    0.0000 H       1  UNL1        0.0270
    101 H          19.7190    4.7750    0.0000 H       1  UNL1        0.0270
    102 H          27.5133    6.2250    0.0000 H       1  UNL1        0.0265
    103 H          26.7162    6.2250    0.0000 H       1  UNL1        0.0265
    104 H          11.9248    6.2250    0.0000 H       1  UNL1        0.0270
    105 H          11.1278    6.2250    0.0000 H       1  UNL1        0.0270
    106 H          14.3364    0.6674    0.0000 H       1  UNL1        0.0270
    107 H          14.7349    1.3577    0.0000 H       1  UNL1        0.0270
    108 H           3.3335    4.7750    0.0000 H       1  UNL1        0.0265
    109 H           4.1306    4.7750    0.0000 H       1  UNL1        0.0265
    110 H           9.5822   -4.6674    0.0000 H       1  UNL1        0.0265
    111 H           9.1836   -5.3577    0.0000 H       1  UNL1        0.0265
    112 H          18.8530    6.2250    0.0000 H       1  UNL1        0.0377
    113 H          18.0560    6.2250    0.0000 H       1  UNL1        0.0377
    114 H          11.9938    4.7750    0.0000 H       1  UNL1        0.0377
    115 H          12.7908    4.7750    0.0000 H       1  UNL1        0.0377
    116 H          13.9123    2.8326    0.0000 H       1  UNL1        0.0377
    117 H          13.5138    2.1423    0.0000 H       1  UNL1        0.0377
    118 H          27.5822    4.7750    0.0000 H       1  UNL1        0.0263
    119 H          28.3793    4.7750    0.0000 H       1  UNL1        0.0263
    120 H           3.2646    6.2250    0.0000 H       1  UNL1        0.0263
    121 H           2.4675    6.2250    0.0000 H       1  UNL1        0.0263
    122 H          10.0063   -6.8326    0.0000 H       1  UNL1        0.0263
    123 H          10.4048   -6.1423    0.0000 H       1  UNL1        0.0263
    124 H          16.3933    4.9400    0.0000 H       1  UNL1        0.0803
    125 H          15.3889    6.2250    0.0000 H       1  UNL1        0.0736
    126 H          14.5919    6.2250    0.0000 H       1  UNL1        0.0736
    127 H          16.0685    3.6674    0.0000 H       1  UNL1        0.0736
    128 H          16.4670    4.3577    0.0000 H       1  UNL1        0.0736
    129 H          29.1568    5.2131    0.0000 H       1  UNL1        0.0230
    130 H          29.3837    6.0600    0.0000 H       1  UNL1        0.0230
    131 H          28.5368    6.2869    0.0000 H       1  UNL1        0.0230
    132 H           1.6900    5.7869    0.0000 H       1  UNL1        0.0230
    133 H           1.4631    4.9400    0.0000 H       1  UNL1        0.0230
    134 H           2.3100    4.7131    0.0000 H       1  UNL1        0.0230
    135 H           8.6182   -6.2131    0.0000 H       1  UNL1        0.0230
    136 H           8.3913   -7.0600    0.0000 H       1  UNL1        0.0230
    137 H           9.2382   -7.2869    0.0000 H       1  UNL1        0.0230
@<TRIPOS>BOND
     1     1    43    1
     2     1    44    1
     3     2    45    1
     4     2    47    1
     5     3    46    1
     6     3    48    1
     7     4    44    2
     8     5    47    2
     9     6    48    2
    10     7     8    1
    11     7    13    1
    12     7    52    1
    13     7    53    1
    14     8    14    1
    15     8    54    1
    16     8    55    1
    17     9    11    1
    18     9    15    1
    19     9    58    1
    20     9    59    1
    21    10    12    1
    22    10    16    1
    23    10    56    1
    24    10    57    1
    25    11    17    1
    26    11    60    1
    27    11    61    1
    28    12    18    1
    29    12    62    1
    30    12    63    1
    31    13    19    1
    32    13    64    1
    33    13    65    1
    34    14    20    1
    35    14    66    1
    36    14    67    1
    37    15    21    1
    38    15    70    1
    39    15    71    1
    40    16    22    1
    41    16    68    1
    42    16    69    1
    43    17    23    1
    44    17    72    1
    45    17    73    1
    46    18    24    1
    47    18    74    1
    48    18    75    1
    49    19    25    1
    50    19    76    1
    51    19    77    1
    52    20    26    1
    53    20    78    1
    54    20    79    1
    55    21    27    1
    56    21    80    1
    57    21    81    1
    58    22    28    1
    59    22    82    1
    60    22    83    1
    61    23    29    1
    62    23    84    1
    63    23    85    1
    64    24    30    1
    65    24    86    1
    66    24    87    1
    67    25    31    1
    68    25    88    1
    69    25    89    1
    70    26    32    1
    71    26    90    1
    72    26    91    1
    73    27    33    1
    74    27    92    1
    75    27    93    1
    76    28    34    1
    77    28    94    1
    78    28    95    1
    79    29    35    1
    80    29    97    1
    81    29    98    1
    82    30    36    1
    83    30    96    1
    84    30    99    1
    85    31    37    1
    86    31   100    1
    87    31   101    1
    88    32    40    1
    89    32   102    1
    90    32   103    1
    91    33    38    1
    92    33   104    1
    93    33   105    1
    94    34    39    1
    95    34   106    1
    96    34   107    1
    97    35    41    1
    98    35   108    1
    99    35   109    1
   100    36    42    1
   101    36   110    1
   102    36   111    1
   103    37    44    1
   104    37   112    1
   105    37   113    1
   106    38    47    1
   107    38   114    1
   108    38   115    1
   109    39    48    1
   110    39   116    1
   111    39   117    1
   112    40    49    1
   113    40   118    1
   114    40   119    1
   115    41    50    1
   116    41   120    1
   117    41   121    1
   118    42    51    1
   119    42   122    1
   120    42   123    1
   121    43    45    1
   122    43    46    1
   123    43   124    1
   124    45   125    1
   125    45   126    1
   126    46   127    1
   127    46   128    1
   128    49   129    1
   129    49   130    1
   130    49   131    1
   131    50   132    1
   132    50   133    1
   133    50   134    1
   134    51   135    1
   135    51   136    1
   136    51   137    1
