@<TRIPOS>MOLECULE
IMPHY013119
 24 26 0 0 0
SMALL
GASTEIGER

@<TRIPOS>ATOM
      1 O           7.3424    0.0721    0.0000 O.3     1  UNL1       -0.4488
      2 O           7.3424   -1.5374    0.0000 O.3     1  UNL1       -0.4524
      3 O           3.7702    0.3020    0.0000 O.2     1  UNL1       -0.4183
      4 O           5.5301    1.2673    0.0000 O.3     1  UNL1       -0.4884
      5 O           2.0000    0.2915    0.0000 O.2     1  UNL1       -0.2452
      6 C           6.3961   -0.2327    0.0000 C.ar    1  UNL1        0.2113
      7 C           6.3961   -1.2327    0.0000 C.ar    1  UNL1        0.1707
      8 C           4.6641   -1.2327    0.0000 C.ar    1  UNL1        0.0250
      9 C           4.6641   -0.2327    0.0000 C.ar    1  UNL1        0.1843
     10 C           5.5301    0.2673    0.0000 C.ar    1  UNL1        0.2087
     11 C           5.5301   -1.7327    0.0000 C.ar    1  UNL1       -0.0052
     12 C           7.9260   -0.7327    0.0000 C.3     1  UNL1        0.2334
     13 C           3.7702   -1.7673    0.0000 C.ar    1  UNL1       -0.0441
     14 C           2.8641   -1.2535    0.0000 C.ar    1  UNL1        0.0236
     15 C           2.8641   -0.2119    0.0000 C.ar    1  UNL1        0.3373
     16 C           6.3961    1.7673    0.0000 C.3     1  UNL1        0.0791
     17 H           5.5301   -2.3527    0.0000 H       1  UNL1        0.0662
     18 H           8.3869   -1.1474    0.0000 H       1  UNL1        0.1166
     19 H           8.3869   -0.3179    0.0000 H       1  UNL1        0.1166
     20 H           3.7773   -2.3873    0.0000 H       1  UNL1        0.0627
     21 H           2.3284   -1.5656    0.0000 H       1  UNL1        0.0689
     22 H           6.7062    1.2304    0.0000 H       1  UNL1        0.0660
     23 H           6.9331    2.0773    0.0000 H       1  UNL1        0.0660
     24 H           6.0862    2.3043    0.0000 H       1  UNL1        0.0660
@<TRIPOS>BOND
     1     1     6    1
     2     1    12    1
     3     2     7    1
     4     2    12    1
     5     3     9   ar
     6     3    15   ar
     7     4    10    1
     8     4    16    1
     9     5    15    2
    10     6     7   ar
    11     6    10   ar
    12     7    11   ar
    13     8     9   ar
    14     8    11   ar
    15     8    13   ar
    16     9    10   ar
    17    11    17    1
    18    12    18    1
    19    12    19    1
    20    13    14   ar
    21    13    20    1
    22    14    15   ar
    23    14    21    1
    24    16    22    1
    25    16    23    1
    26    16    24    1
