@<TRIPOS>MOLECULE
IMPHY012812
 18 17 0 0 0
SMALL
GASTEIGER

@<TRIPOS>ATOM
      1 O           2.8660    0.2500    0.0000 O.3     1  UNL1       -0.4647
      2 O           3.7320   -1.2500    0.0000 O.2     1  UNL1       -0.2453
      3 C           4.5981    0.2500    0.0000 C.2     1  UNL1        0.0293
      4 C           5.4641   -0.2500    0.0000 C.2     1  UNL1       -0.0774
      5 C           4.5981    1.2500    0.0000 C.3     1  UNL1       -0.0333
      6 C           3.7320   -0.2500    0.0000 C.2     1  UNL1        0.3343
      7 C           6.3301    0.2500    0.0000 C.3     1  UNL1       -0.0461
      8 C           2.0000   -0.2500    0.0000 C.3     1  UNL1        0.0820
      9 H           5.4641   -0.8700    0.0000 H       1  UNL1        0.0574
     10 H           5.2181    1.2500    0.0000 H       1  UNL1        0.0280
     11 H           4.5981    1.8700    0.0000 H       1  UNL1        0.0280
     12 H           3.9781    1.2500    0.0000 H       1  UNL1        0.0280
     13 H           6.6401   -0.2869    0.0000 H       1  UNL1        0.0272
     14 H           6.8671    0.5600    0.0000 H       1  UNL1        0.0272
     15 H           6.0201    0.7869    0.0000 H       1  UNL1        0.0272
     16 H           1.6900    0.2869    0.0000 H       1  UNL1        0.0661
     17 H           1.4631   -0.5600    0.0000 H       1  UNL1        0.0661
     18 H           2.3100   -0.7869    0.0000 H       1  UNL1        0.0661
@<TRIPOS>BOND
     1     1     6    1
     2     1     8    1
     3     2     6    2
     4     3     4    2
     5     3     5    1
     6     3     6    1
     7     4     7    1
     8     4     9    1
     9     5    10    1
    10     5    11    1
    11     5    12    1
    12     7    13    1
    13     7    14    1
    14     7    15    1
    15     8    16    1
    16     8    17    1
    17     8    18    1
