@<TRIPOS>MOLECULE
IMPHY008224
 79 83 0 0 0
SMALL
GASTEIGER

@<TRIPOS>ATOM
      1 O           5.6489   -3.4047    0.0000 O.3     1  UNL1       -0.3914
      2 O           4.7950    1.1646    0.0000 O.2     1  UNL1       -0.2923
      3 O           2.0000   -2.3878    0.0000 O.2     1  UNL1       -0.2968
      4 C           6.5271   -0.8354    0.0000 C.3     1  UNL1       -0.0103
      5 C           7.3931   -0.3354    0.0000 C.3     1  UNL1       -0.0043
      6 C           5.6610   -0.3354    0.0000 C.3     1  UNL1        0.0335
      7 C           4.7510   -0.8423    0.0000 C.3     1  UNL1       -0.0153
      8 C           4.7430   -1.8839    0.0000 C.3     1  UNL1        0.0029
      9 C           6.5431   -1.8769    0.0000 C.3     1  UNL1       -0.0197
     10 C           8.2870    1.1992    0.0000 C.3     1  UNL1       -0.0131
     11 C           7.3931    0.6646    0.0000 C.2     1  UNL1       -0.0562
     12 C           9.1931    0.6854    0.0000 C.3     1  UNL1       -0.0255
     13 C           5.6451   -2.4047    0.0000 C.3     1  UNL1        0.0600
     14 C           8.2870   -0.8701    0.0000 C.3     1  UNL1       -0.0429
     15 C           3.8076   -2.4336    0.0000 C.3     1  UNL1        0.0290
     16 C           9.1931   -0.3562    0.0000 C.3     1  UNL1       -0.0463
     17 C           3.8242   -0.2782    0.0000 C.3     1  UNL1       -0.0399
     18 C           7.1698   -1.6015    0.0000 C.3     1  UNL1       -0.0580
     19 C           5.6610    0.6646    0.0000 C.2     1  UNL1        0.1602
     20 C           8.2619    2.2839    0.0000 C.3     1  UNL1       -0.0408
     21 C           7.7352   -1.2751    0.0000 C.3     1  UNL1       -0.0553
     22 C          10.1369    1.2206    0.0000 C.3     1  UNL1       -0.0466
     23 C           6.5271    1.1646    0.0000 C.2     1  UNL1       -0.0188
     24 C           4.7587    0.1577    0.0000 C.3     1  UNL1       -0.0585
     25 C           9.1931    2.8409    0.0000 C.3     1  UNL1       -0.0343
     26 C           2.8763   -0.8061    0.0000 C.3     1  UNL1        0.0069
     27 C          10.1369    2.3056    0.0000 C.3     1  UNL1       -0.0473
     28 C           2.8680   -1.8911    0.0000 C.2     1  UNL1        0.1393
     29 C          10.0629    0.1921    0.0000 C.3     1  UNL1       -0.0590
     30 C           3.3109   -3.3015    0.0000 C.3     1  UNL1       -0.0527
     31 C           4.3109   -3.2977    0.0000 C.3     1  UNL1       -0.0527
     32 C           9.6830    3.7126    0.0000 C.3     1  UNL1       -0.0598
     33 C           8.6831    3.7010    0.0000 C.3     1  UNL1       -0.0598
     34 H           6.3972    0.0896    0.0000 H       1  UNL1        0.0392
     35 H           4.7463   -2.7339    0.0000 H       1  UNL1        0.0340
     36 H           6.7612   -2.4573    0.0000 H       1  UNL1        0.0296
     37 H           7.1523   -1.7614    0.0000 H       1  UNL1        0.0296
     38 H           9.0165    1.6355    0.0000 H       1  UNL1        0.0351
     39 H           5.1087   -2.7157    0.0000 H       1  UNL1        0.0596
     40 H           7.8824   -1.3399    0.0000 H       1  UNL1        0.0274
     41 H           8.6806   -1.3491    0.0000 H       1  UNL1        0.0274
     42 H           9.4022   -0.9399    0.0000 H       1  UNL1        0.0271
     43 H           9.8040   -0.2501    0.0000 H       1  UNL1        0.0271
     44 H           4.2324    0.1885    0.0000 H       1  UNL1        0.0275
     45 H           3.4343    0.2038    0.0000 H       1  UNL1        0.0275
     46 H           6.6949   -2.0000    0.0000 H       1  UNL1        0.0236
     47 H           7.5684   -2.0764    0.0000 H       1  UNL1        0.0236
     48 H           7.6448   -1.2029    0.0000 H       1  UNL1        0.0236
     49 H           8.0394    2.8626    0.0000 H       1  UNL1        0.0276
     50 H           7.6537    2.1638    0.0000 H       1  UNL1        0.0276
     51 H           7.1526   -1.4872    0.0000 H       1  UNL1        0.0238
     52 H           7.9473   -1.8577    0.0000 H       1  UNL1        0.0238
     53 H           8.3178   -1.0630    0.0000 H       1  UNL1        0.0238
     54 H          10.3459    0.6369    0.0000 H       1  UNL1        0.0271
     55 H          10.7477    1.3267    0.0000 H       1  UNL1        0.0271
     56 H           6.5271    1.7846    0.0000 H       1  UNL1        0.0652
     57 H           5.3787    0.1529    0.0000 H       1  UNL1        0.0235
     58 H           4.7635    0.7777    0.0000 H       1  UNL1        0.0235
     59 H           4.1388    0.1625    0.0000 H       1  UNL1        0.0235
     60 H           2.6718   -0.2209    0.0000 H       1  UNL1        0.0342
     61 H           2.2647   -0.9075    0.0000 H       1  UNL1        0.0342
     62 H          10.7477    2.1995    0.0000 H       1  UNL1        0.0271
     63 H          10.3459    2.8893    0.0000 H       1  UNL1        0.0271
     64 H           9.7571   -0.3472    0.0000 H       1  UNL1        0.0235
     65 H          10.6023   -0.1138    0.0000 H       1  UNL1        0.0235
     66 H          10.3688    0.7314    0.0000 H       1  UNL1        0.0235
     67 H           3.7752   -3.6098    0.0000 H       1  UNL1        0.0239
     68 H           2.7728   -2.9936    0.0000 H       1  UNL1        0.0239
     69 H           4.6230   -3.8334    0.0000 H       1  UNL1        0.0239
     70 H           4.8466   -2.9856    0.0000 H       1  UNL1        0.0239
     71 H           3.0030   -3.8397    0.0000 H       1  UNL1        0.0239
     72 H           3.8490   -3.6095    0.0000 H       1  UNL1        0.0239
     73 H           6.1871   -3.7126    0.0000 H       1  UNL1        0.2098
     74 H           9.2164    4.0172    0.0000 H       1  UNL1        0.0235
     75 H           8.3669    4.2344    0.0000 H       1  UNL1        0.0235
     76 H          10.2235    3.4088    0.0000 H       1  UNL1        0.0235
     77 H           9.9868    4.2531    0.0000 H       1  UNL1        0.0235
     78 H           8.1498    3.3849    0.0000 H       1  UNL1        0.0235
     79 H           9.1426    4.0164    0.0000 H       1  UNL1        0.0235
@<TRIPOS>BOND
     1    13     1    1
     2     1    73    1
     3     2    19    2
     4     3    28    2
     5     4     5    1
     6     4     6    1
     7     4     9    1
     8     4    18    1
     9     5    11    1
    10     5    14    1
    11     5    21    1
    12     6     7    1
    13     6    19    1
    14     6    34    1
    15     7     8    1
    16     7    17    1
    17     7    24    1
    18     8    13    1
    19     8    15    1
    20     8    35    1
    21     9    13    1
    22     9    36    1
    23     9    37    1
    24    10    11    1
    25    10    12    1
    26    10    20    1
    27    10    38    1
    28    11    23    2
    29    12    16    1
    30    12    22    1
    31    12    29    1
    32    13    39    1
    33    14    16    1
    34    14    40    1
    35    14    41    1
    36    15    28    1
    37    15    30    1
    38    15    31    1
    39    16    42    1
    40    16    43    1
    41    17    26    1
    42    17    44    1
    43    17    45    1
    44    18    46    1
    45    18    47    1
    46    18    48    1
    47    19    23    1
    48    20    25    1
    49    20    49    1
    50    20    50    1
    51    21    51    1
    52    21    52    1
    53    21    53    1
    54    22    27    1
    55    22    54    1
    56    22    55    1
    57    23    56    1
    58    24    57    1
    59    24    58    1
    60    24    59    1
    61    25    27    1
    62    25    32    1
    63    25    33    1
    64    26    28    1
    65    26    60    1
    66    26    61    1
    67    27    62    1
    68    27    63    1
    69    29    64    1
    70    29    65    1
    71    29    66    1
    72    30    68    1
    73    30    71    1
    74    30    72    1
    75    31    67    1
    76    31    69    1
    77    31    70    1
    78    32    76    1
    79    32    77    1
    80    32    79    1
    81    33    74    1
    82    33    75    1
    83    33    78    1
