@<TRIPOS>MOLECULE
IMPHY016464
 41 40 0 0 0
SMALL
GASTEIGER

@<TRIPOS>ATOM
      1 C           5.4641    1.0000    0.0000 C.3     1  UNL1       -0.0410
      2 C           6.3301    1.5000    0.0000 C.3     1  UNL1       -0.0502
      3 C           4.5981    1.5000    0.0000 C.3     1  UNL1       -0.0502
      4 C           5.4641    0.0000    0.0000 C.3     1  UNL1       -0.0505
      5 C           7.1962    1.0000    0.0000 C.3     1  UNL1       -0.0528
      6 C           3.7320    1.0000    0.0000 C.3     1  UNL1       -0.0531
      7 C           4.5981   -0.5000    0.0000 C.3     1  UNL1       -0.0557
      8 C           8.0622    1.5000    0.0000 C.3     1  UNL1       -0.0533
      9 C           2.8660    1.5000    0.0000 C.3     1  UNL1       -0.0559
     10 C           8.9282    1.0000    0.0000 C.3     1  UNL1       -0.0559
     11 C           4.5981   -1.5000    0.0000 C.3     1  UNL1       -0.0653
     12 C           2.0000    1.0000    0.0000 C.3     1  UNL1       -0.0653
     13 C           9.7942    1.5000    0.0000 C.3     1  UNL1       -0.0653
     14 H           5.4641    1.6200    0.0000 H       1  UNL1        0.0301
     15 H           6.7287    1.9750    0.0000 H       1  UNL1        0.0268
     16 H           5.9316    1.9750    0.0000 H       1  UNL1        0.0268
     17 H           4.9966    1.9750    0.0000 H       1  UNL1        0.0268
     18 H           4.1996    1.9750    0.0000 H       1  UNL1        0.0268
     19 H           5.6762   -0.5826    0.0000 H       1  UNL1        0.0268
     20 H           6.0747    0.1077    0.0000 H       1  UNL1        0.0268
     21 H           6.7976    0.5251    0.0000 H       1  UNL1        0.0265
     22 H           7.5947    0.5251    0.0000 H       1  UNL1        0.0265
     23 H           3.3335    0.5251    0.0000 H       1  UNL1        0.0265
     24 H           4.1306    0.5251    0.0000 H       1  UNL1        0.0265
     25 H           4.3860    0.0826    0.0000 H       1  UNL1        0.0263
     26 H           3.9875   -0.6077    0.0000 H       1  UNL1        0.0263
     27 H           8.4607    1.9750    0.0000 H       1  UNL1        0.0265
     28 H           7.6636    1.9750    0.0000 H       1  UNL1        0.0265
     29 H           3.2646    1.9750    0.0000 H       1  UNL1        0.0263
     30 H           2.4675    1.9750    0.0000 H       1  UNL1        0.0263
     31 H           8.5297    0.5251    0.0000 H       1  UNL1        0.0263
     32 H           9.3267    0.5251    0.0000 H       1  UNL1        0.0263
     33 H           3.9781   -1.5000    0.0000 H       1  UNL1        0.0230
     34 H           4.5981   -2.1200    0.0000 H       1  UNL1        0.0230
     35 H           5.2181   -1.5000    0.0000 H       1  UNL1        0.0230
     36 H           1.6900    1.5369    0.0000 H       1  UNL1        0.0230
     37 H           1.4631    0.6900    0.0000 H       1  UNL1        0.0230
     38 H           2.3100    0.4631    0.0000 H       1  UNL1        0.0230
     39 H          10.1042    0.9631    0.0000 H       1  UNL1        0.0230
     40 H          10.3312    1.8100    0.0000 H       1  UNL1        0.0230
     41 H           9.4842    2.0369    0.0000 H       1  UNL1        0.0230
@<TRIPOS>BOND
     1     1     2    1
     2     1     3    1
     3     1     4    1
     4     1    14    1
     5     2     5    1
     6     2    15    1
     7     2    16    1
     8     3     6    1
     9     3    17    1
    10     3    18    1
    11     4     7    1
    12     4    19    1
    13     4    20    1
    14     5     8    1
    15     5    21    1
    16     5    22    1
    17     6     9    1
    18     6    23    1
    19     6    24    1
    20     7    11    1
    21     7    25    1
    22     7    26    1
    23     8    10    1
    24     8    27    1
    25     8    28    1
    26     9    12    1
    27     9    29    1
    28     9    30    1
    29    10    13    1
    30    10    31    1
    31    10    32    1
    32    11    33    1
    33    11    34    1
    34    11    35    1
    35    12    36    1
    36    12    37    1
    37    12    38    1
    38    13    39    1
    39    13    40    1
    40    13    41    1
