@<TRIPOS>MOLECULE
IMPHY017837
 38 40 0 0 0
SMALL
GASTEIGER

@<TRIPOS>ATOM
      1 O           5.5180   -0.2154    0.0000 O.3     1  UNL1       -0.3682
      2 C           4.6520   -0.7154    0.0000 C.3     1  UNL1        0.0795
      3 C           3.7860   -0.2154    0.0000 C.3     1  UNL1       -0.0011
      4 C           3.7860    0.7846    0.0000 C.3     1  UNL1       -0.0122
      5 C           4.8551   -0.3454    0.0000 C.3     1  UNL1       -0.0141
      6 C           4.2079    0.7756    0.0000 C.3     1  UNL1       -0.0458
      7 C           4.9387    0.4502    0.0000 C.3     1  UNL1       -0.0473
      8 C           4.6681   -1.7569    0.0000 C.3     1  UNL1       -0.0047
      9 C           2.8760   -0.7222    0.0000 C.3     1  UNL1       -0.0260
     10 C           4.6520    1.2846    0.0000 C.2     1  UNL1       -0.0478
     11 C           5.5180    0.7846    0.0000 C.3     1  UNL1        0.0695
     12 C           2.8680   -1.7638    0.0000 C.2     1  UNL1       -0.0761
     13 C           5.5982   -1.0146    0.0000 C.3     1  UNL1       -0.0598
     14 C           3.7700   -2.2846    0.0000 C.2     1  UNL1       -0.0823
     15 C           4.6520    2.2846    0.0000 C.2     1  UNL1       -0.0970
     16 C           2.0000   -2.2605    0.0000 C.3     1  UNL1       -0.0438
     17 H           3.2514    0.0988    0.0000 H       1  UNL1        0.0338
     18 H           3.2490    1.0946    0.0000 H       1  UNL1        0.0350
     19 H           5.4339   -0.1233    0.0000 H       1  UNL1        0.0326
     20 H           4.6570    1.2030    0.0000 H       1  UNL1        0.0271
     21 H           4.0725    0.1705    0.0000 H       1  UNL1        0.0271
     22 H           5.5452    0.3213    0.0000 H       1  UNL1        0.0269
     23 H           5.1303    1.0398    0.0000 H       1  UNL1        0.0269
     24 H           4.8861   -2.3373    0.0000 H       1  UNL1        0.0335
     25 H           5.2772   -1.6414    0.0000 H       1  UNL1        0.0335
     26 H           2.6714   -0.1369    0.0000 H       1  UNL1        0.0314
     27 H           2.2643   -0.8236    0.0000 H       1  UNL1        0.0314
     28 H           6.1286    0.6770    0.0000 H       1  UNL1        0.0607
     29 H           5.7301    1.3672    0.0000 H       1  UNL1        0.0607
     30 H           5.1834   -1.4753    0.0000 H       1  UNL1        0.0233
     31 H           6.0590   -1.4294    0.0000 H       1  UNL1        0.0233
     32 H           6.0131   -0.5538    0.0000 H       1  UNL1        0.0233
     33 H           3.7724   -2.9046    0.0000 H       1  UNL1        0.0572
     34 H           5.1889    2.5946    0.0000 H       1  UNL1        0.0535
     35 H           4.1151    2.5946    0.0000 H       1  UNL1        0.0535
     36 H           1.6921   -1.7224    0.0000 H       1  UNL1        0.0274
     37 H           1.4619   -2.5684    0.0000 H       1  UNL1        0.0274
     38 H           2.3079   -2.7986    0.0000 H       1  UNL1        0.0274
@<TRIPOS>BOND
     1     1     2    1
     2     1    11    1
     3     2     3    1
     4     2     5    1
     5     2     8    1
     6     3     4    1
     7     3     9    1
     8     3    17    1
     9     4     6    1
    10     4    10    1
    11     4    18    1
    12     5     7    1
    13     5    13    1
    14     5    19    1
    15     6     7    1
    16     6    20    1
    17     6    21    1
    18     7    22    1
    19     7    23    1
    20     8    14    1
    21     8    24    1
    22     8    25    1
    23     9    12    1
    24     9    26    1
    25     9    27    1
    26    10    11    1
    27    10    15    2
    28    11    28    1
    29    11    29    1
    30    12    14    2
    31    12    16    1
    32    13    30    1
    33    13    31    1
    34    13    32    1
    35    14    33    1
    36    15    34    1
    37    15    35    1
    38    16    36    1
    39    16    37    1
    40    16    38    1
