@<TRIPOS>MOLECULE
IMPHY002375
 22 25 0 0 0
SMALL
GASTEIGER

@<TRIPOS>ATOM
      1 C          -5.1962    1.0000    0.0000 C.3     1  UNL1        0.2525
      2 C          -2.5981   -0.5000    0.0000 C.ar    1  UNL1        0.0061
      3 C          -1.7321    1.0000    0.0000 C.ar    1  UNL1        0.0061
      4 C          -3.4641    0.0000    0.0000 C.ar    1  UNL1        0.0370
      5 C          -2.5981    1.5000    0.0000 C.ar    1  UNL1        0.0370
      6 C           1.7321   -2.0000    0.0000 C.ar    1  UNL1        0.0094
      7 C           2.5981   -1.5000    0.0000 C.ar    1  UNL1        0.0378
      8 C           1.9400    0.9781    0.0000 C.ar    1  UNL1        0.0467
      9 C           2.9345    1.0827    0.0000 C.ar    1  UNL1        0.1797
     10 C          -0.8660   -1.5000    0.0000 C.ar    1  UNL1        0.0796
     11 C          -1.7321    0.0000    0.0000 C.ar    1  UNL1        0.0349
     12 C          -3.4641    1.0000    0.0000 C.ar    1  UNL1        0.1387
     13 C           0.8660   -1.5000    0.0000 C.ar    1  UNL1        0.0737
     14 C           1.7321    0.0000    0.0000 C.ar    1  UNL1        0.0723
     15 C           0.0000   -2.0000    0.0000 C.ar    1  UNL1        0.2016
     16 C           2.5981   -0.5000    0.0000 C.ar    1  UNL1        0.1484
     17 C          -0.8660   -0.5000    0.0000 C.ar    1  UNL1        0.1484
     18 C           0.8660   -0.5000    0.0000 C.ar    1  UNL1        0.1512
     19 O           0.0000   -3.0000    0.0000 O.2     1  UNL1       -0.2864
     20 O          -4.3301    1.5000    0.0000 O.3     1  UNL1       -0.4714
     21 O           3.3412    0.1691    0.0000 O.2     1  UNL1       -0.4503
     22 O           0.0000    0.0000    0.0000 O.2     1  UNL1       -0.4532
@<TRIPOS>BOND
     1     1    20    1
     2     2     4   ar
     3     2    11   ar
     4     3     5   ar
     5     3    11   ar
     6     4    12   ar
     7     5    12   ar
     8     6     7   ar
     9     6    13   ar
    10     7    16   ar
    11     8     9   ar
    12     8    14   ar
    13     9    21   ar
    14    10    15   ar
    15    10    17   ar
    16    11    17    1
    17    12    20    1
    18    13    15   ar
    19    13    18   ar
    20    14    16   ar
    21    14    18   ar
    22    15    19    2
    23    16    21   ar
    24    17    22   ar
    25    18    22   ar
