@<TRIPOS>MOLECULE
IMPHY017782
 15 14 0 0 0
SMALL
GASTEIGER

@<TRIPOS>ATOM
      1 S           5.4641    0.2500    0.0000 S.3     1  UNL1       -0.1529
      2 O           2.8660    0.7500    0.0000 O.3     1  UNL1       -0.4674
      3 O           3.7320   -0.7500    0.0000 O.2     1  UNL1       -0.2499
      4 C           4.5981    0.7500    0.0000 C.3     1  UNL1        0.0908
      5 C           3.7320    0.2500    0.0000 C.2     1  UNL1        0.3168
      6 C           6.3301    0.7500    0.0000 C.3     1  UNL1       -0.0176
      7 C           2.0000    0.2500    0.0000 C.3     1  UNL1        0.0817
      8 H           4.9966    1.2250    0.0000 H       1  UNL1        0.0490
      9 H           4.1996    1.2250    0.0000 H       1  UNL1        0.0490
     10 H           6.6401    0.2131    0.0000 H       1  UNL1        0.0341
     11 H           6.8671    1.0600    0.0000 H       1  UNL1        0.0341
     12 H           6.0201    1.2869    0.0000 H       1  UNL1        0.0341
     13 H           1.6900    0.7869    0.0000 H       1  UNL1        0.0661
     14 H           1.4631   -0.0600    0.0000 H       1  UNL1        0.0661
     15 H           2.3100   -0.2869    0.0000 H       1  UNL1        0.0661
@<TRIPOS>BOND
     1     1     4    1
     2     1     6    1
     3     2     5    1
     4     2     7    1
     5     3     5    2
     6     4     5    1
     7     4     8    1
     8     4     9    1
     9     6    10    1
    10     6    11    1
    11     6    12    1
    12     7    13    1
    13     7    14    1
    14     7    15    1
