@<TRIPOS>MOLECULE
IMPHY014112
 27 26 0 0 0
SMALL
GASTEIGER

@<TRIPOS>ATOM
      1 O           2.0000    0.4400    0.0000 O.2     1  UNL1       -0.3007
      2 C           6.3301   -0.0600    0.0000 C.3     1  UNL1       -0.0161
      3 C           4.5981   -0.0600    0.0000 C.2     1  UNL1       -0.0694
      4 C           5.4641    0.4400    0.0000 C.2     1  UNL1       -0.0809
      5 C           7.1962    0.4400    0.0000 C.2     1  UNL1       -0.0815
      6 C           3.7320    0.4400    0.0000 C.3     1  UNL1        0.0237
      7 C           8.0622   -0.0600    0.0000 C.2     1  UNL1       -0.0793
      8 C           4.5981   -1.0600    0.0000 C.3     1  UNL1       -0.0434
      9 C           8.9282    0.4400    0.0000 C.3     1  UNL1       -0.0440
     10 C           8.0622   -1.0600    0.0000 C.3     1  UNL1       -0.0440
     11 C           2.8660   -0.0600    0.0000 C.2     1  UNL1        0.1243
     12 H           5.9316   -0.5349    0.0000 H       1  UNL1        0.0350
     13 H           6.7287   -0.5349    0.0000 H       1  UNL1        0.0350
     14 H           5.4641    1.0600    0.0000 H       1  UNL1        0.0575
     15 H           7.1962    1.0600    0.0000 H       1  UNL1        0.0575
     16 H           4.1306    0.9149    0.0000 H       1  UNL1        0.0384
     17 H           3.3335    0.9149    0.0000 H       1  UNL1        0.0384
     18 H           3.9781   -1.0600    0.0000 H       1  UNL1        0.0274
     19 H           4.5981   -1.6800    0.0000 H       1  UNL1        0.0274
     20 H           5.2181   -1.0600    0.0000 H       1  UNL1        0.0274
     21 H           9.2382   -0.0969    0.0000 H       1  UNL1        0.0274
     22 H           9.4651    0.7500    0.0000 H       1  UNL1        0.0274
     23 H           8.6182    0.9769    0.0000 H       1  UNL1        0.0274
     24 H           7.4422   -1.0600    0.0000 H       1  UNL1        0.0274
     25 H           8.0622   -1.6800    0.0000 H       1  UNL1        0.0274
     26 H           8.6822   -1.0600    0.0000 H       1  UNL1        0.0274
     27 H           2.8660   -0.6800    0.0000 H       1  UNL1        0.1029
@<TRIPOS>BOND
     1     1    11    2
     2     2     4    1
     3     2     5    1
     4     2    12    1
     5     2    13    1
     6     3     4    2
     7     3     6    1
     8     3     8    1
     9     4    14    1
    10     5     7    2
    11     5    15    1
    12     6    11    1
    13     6    16    1
    14     6    17    1
    15     7     9    1
    16     7    10    1
    17     8    18    1
    18     8    19    1
    19     8    20    1
    20     9    21    1
    21     9    22    1
    22     9    23    1
    23    10    24    1
    24    10    25    1
    25    10    26    1
    26    11    27    1
