@<TRIPOS>MOLECULE
IMPHY017126
 40 42 0 0 0
SMALL
GASTEIGER

@<TRIPOS>ATOM
      1 O           7.7438    1.7815    0.0000 O.3     1  UNL1       -0.3907
      2 C           6.2934   -0.4478    0.0000 C.3     1  UNL1       -0.0218
      3 C           3.4766   -0.3626    0.0000 C.3     1  UNL1       -0.0252
      4 C           4.6168    0.5945    0.0000 C.3     1  UNL1       -0.0278
      5 C           4.8756   -0.3714    0.0000 C.3     1  UNL1       -0.0085
      6 C           3.5882   -1.3660    0.0000 C.3     1  UNL1       -0.0312
      7 C           6.1214   -1.4426    0.0000 C.3     1  UNL1       -0.0468
      8 C           4.6952    2.0552    0.0000 C.3     1  UNL1       -0.0308
      9 C           6.0965    1.2462    0.0000 C.2     1  UNL1       -0.0445
     10 C           4.3303   -2.0506    0.0000 C.3     1  UNL1       -0.0476
     11 C           7.2920   -0.5016    0.0000 C.3     1  UNL1       -0.0587
     12 C           5.3393   -2.0811    0.0000 C.3     1  UNL1       -0.0520
     13 C           5.6898    2.1598    0.0000 C.2     1  UNL1       -0.0820
     14 C           2.9800   -2.1598    0.0000 C.3     1  UNL1       -0.0595
     15 C           2.5884   -1.3854    0.0000 C.3     1  UNL1       -0.0595
     16 C           7.0747    1.0383    0.0000 C.3     1  UNL1        0.0656
     17 H           2.6875   -0.0467    0.0000 H       1  UNL1        0.0315
     18 H           4.3968    1.4155    0.0000 H       1  UNL1        0.0312
     19 H           5.0956   -1.1925    0.0000 H       1  UNL1        0.0355
     20 H           6.7374   -1.3720    0.0000 H       1  UNL1        0.0271
     21 H           6.3625   -2.0138    0.0000 H       1  UNL1        0.0271
     22 H           4.0752    2.0558    0.0000 H       1  UNL1        0.0310
     23 H           4.6631    2.6744    0.0000 H       1  UNL1        0.0310
     24 H           4.4867   -2.6505    0.0000 H       1  UNL1        0.0271
     25 H           3.7986   -2.3695    0.0000 H       1  UNL1        0.0271
     26 H           7.3253    0.1175    0.0000 H       1  UNL1        0.0235
     27 H           7.9110   -0.5349    0.0000 H       1  UNL1        0.0235
     28 H           7.2586   -1.1207    0.0000 H       1  UNL1        0.0235
     29 H           5.8508   -2.4316    0.0000 H       1  UNL1        0.0266
     30 H           5.1470   -2.6705    0.0000 H       1  UNL1        0.0266
     31 H           5.9998    2.6967    0.0000 H       1  UNL1        0.0573
     32 H           3.4722   -2.5369    0.0000 H       1  UNL1        0.0235
     33 H           2.6029   -2.6519    0.0000 H       1  UNL1        0.0235
     34 H           2.4879   -1.7827    0.0000 H       1  UNL1        0.0235
     35 H           2.6004   -2.0053    0.0000 H       1  UNL1        0.0235
     36 H           1.9685   -1.3974    0.0000 H       1  UNL1        0.0235
     37 H           2.5764   -0.7655    0.0000 H       1  UNL1        0.0235
     38 H           7.6004    0.7098    0.0000 H       1  UNL1        0.0604
     39 H           6.8424    0.4635    0.0000 H       1  UNL1        0.0604
     40 H           8.3502    1.6526    0.0000 H       1  UNL1        0.2098
@<TRIPOS>BOND
     1     1    16    1
     2     1    40    1
     3     2     4    1
     4     2     5    1
     5     2     7    1
     6     2    11    1
     7     3     4    1
     8     3     5    1
     9     3     6    1
    10     3    17    1
    11     4     8    1
    12     4    18    1
    13     5     9    1
    14     5    19    1
    15     6    10    1
    16     6    14    1
    17     6    15    1
    18     7    12    1
    19     7    20    1
    20     7    21    1
    21     8    13    1
    22     8    22    1
    23     8    23    1
    24     9    13    2
    25     9    16    1
    26    10    12    1
    27    10    24    1
    28    10    25    1
    29    11    26    1
    30    11    27    1
    31    11    28    1
    32    12    29    1
    33    12    30    1
    34    13    31    1
    35    14    32    1
    36    14    33    1
    37    14    34    1
    38    15    35    1
    39    15    36    1
    40    15    37    1
    41    16    38    1
    42    16    39    1
