@<TRIPOS>MOLECULE
IMPHY006854
 66 71 0 0 0
SMALL
GASTEIGER

@<TRIPOS>ATOM
      1 O           6.6606   -2.2445    0.0000 O.3     1  UNL1       -0.3730
      2 O           6.9088    0.0339    0.0000 O.3     1  UNL1       -0.3884
      3 O           2.5405   -1.4630    0.0000 O.3     1  UNL1       -0.3911
      4 O           4.2986   -4.5354    0.0000 O.3     1  UNL1       -0.3911
      5 O           2.5247    1.5790    0.0000 O.2     1  UNL1       -0.2965
      6 O           3.2142    4.8474    0.0000 O.2     1  UNL1       -0.4708
      7 C           4.3107   -1.4661    0.0000 C.3     1  UNL1        0.0040
      8 C           5.1767   -1.9661    0.0000 C.3     1  UNL1        0.0056
      9 C           4.3107   -0.4661    0.0000 C.3     1  UNL1       -0.0147
     10 C           5.1767    0.0339    0.0000 C.3     1  UNL1        0.0220
     11 C           5.1928   -3.0076    0.0000 C.3     1  UNL1        0.0231
     12 C           6.0427   -1.4661    0.0000 C.3     1  UNL1        0.0894
     13 C           6.0427   -0.4661    0.0000 C.3     1  UNL1        0.0909
     14 C           3.4007   -1.9730    0.0000 C.3     1  UNL1        0.0636
     15 C           4.2947   -3.5354    0.0000 C.3     1  UNL1        0.0654
     16 C           5.1928    1.0754    0.0000 C.2     1  UNL1       -0.0512
     17 C           3.4007    0.0407    0.0000 C.3     1  UNL1        0.0110
     18 C           6.1808   -3.1148    0.0000 C.3     1  UNL1        0.0562
     19 C           4.2947    1.6032    0.0000 C.3     1  UNL1        0.0548
     20 C           3.3926   -3.0146    0.0000 C.3     1  UNL1        0.0004
     21 C           3.4446   -0.9661    0.0000 C.3     1  UNL1       -0.0566
     22 C           6.0427    0.5339    0.0000 C.3     1  UNL1       -0.0531
     23 C           5.7027   -3.8678    0.0000 C.3     1  UNL1       -0.0547
     24 C           3.3926    1.0823    0.0000 C.2     1  UNL1        0.1441
     25 C           4.5204    2.6137    0.0000 C.3     1  UNL1        0.0064
     26 C           5.9658    1.7643    0.0000 C.2     1  UNL1       -0.0826
     27 C           5.5511    2.7131    0.0000 C.3     1  UNL1       -0.0263
     28 C           3.4326    2.1098    0.0000 C.3     1  UNL1       -0.0485
     29 C           3.8583    3.3631    0.0000 C.ar    1  UNL1       -0.0051
     30 C           2.8629    3.2680    0.0000 C.ar    1  UNL1       -0.0204
     31 C           4.0755    4.3393    0.0000 C.ar    1  UNL1        0.0951
     32 C           2.4648    4.1854    0.0000 C.ar    1  UNL1        0.0920
     33 H           4.4406   -2.3911    0.0000 H       1  UNL1        0.0340
     34 H           5.0468   -0.8911    0.0000 H       1  UNL1        0.0320
     35 H           6.8453   -1.1863    0.0000 H       1  UNL1        0.0625
     36 H           6.5797   -0.7761    0.0000 H       1  UNL1        0.0628
     37 H           2.8608   -2.2778    0.0000 H       1  UNL1        0.0600
     38 H           4.8334   -3.8423    0.0000 H       1  UNL1        0.0600
     39 H           2.7890    0.1421    0.0000 H       1  UNL1        0.0345
     40 H           3.1961   -0.5446    0.0000 H       1  UNL1        0.0345
     41 H           6.0334   -3.7170    0.0000 H       1  UNL1        0.0566
     42 H           6.7584   -3.3401    0.0000 H       1  UNL1        0.0566
     43 H           2.7826   -2.9038    0.0000 H       1  UNL1        0.0315
     44 H           3.1791   -3.5966    0.0000 H       1  UNL1        0.0315
     45 H           3.7546   -0.4292    0.0000 H       1  UNL1        0.0236
     46 H           2.9077   -0.6561    0.0000 H       1  UNL1        0.0236
     47 H           3.1346   -1.5030    0.0000 H       1  UNL1        0.0236
     48 H           6.3527   -0.0030    0.0000 H       1  UNL1        0.0239
     49 H           6.5797    0.8439    0.0000 H       1  UNL1        0.0239
     50 H           5.7327    1.0708    0.0000 H       1  UNL1        0.0239
     51 H           5.1694   -4.1840    0.0000 H       1  UNL1        0.0237
     52 H           6.0189   -4.4011    0.0000 H       1  UNL1        0.0237
     53 H           6.2360   -3.5516    0.0000 H       1  UNL1        0.0237
     54 H           4.7478    3.1905    0.0000 H       1  UNL1        0.0365
     55 H           6.5715    1.6318    0.0000 H       1  UNL1        0.0572
     56 H           6.1422    2.9003    0.0000 H       1  UNL1        0.0314
     57 H           5.4271    3.3206    0.0000 H       1  UNL1        0.0314
     58 H           7.4457   -0.2761    0.0000 H       1  UNL1        0.2099
     59 H           3.7467    2.6443    0.0000 H       1  UNL1        0.0242
     60 H           2.8980    2.4239    0.0000 H       1  UNL1        0.0242
     61 H           3.1184    1.5753    0.0000 H       1  UNL1        0.0242
     62 H           2.0000   -1.7668    0.0000 H       1  UNL1        0.2098
     63 H           3.7628   -4.8474    0.0000 H       1  UNL1        0.2098
     64 H           2.5478    2.7340    0.0000 H       1  UNL1        0.0652
     65 H           4.6442    4.5861    0.0000 H       1  UNL1        0.1032
     66 H           1.8596    4.3200    0.0000 H       1  UNL1        0.1029
@<TRIPOS>BOND
     1     1    12    1
     2     1    18    1
     3    13     2    1
     4     2    58    1
     5    14     3    1
     6     3    62    1
     7    15     4    1
     8     4    63    1
     9     5    24    2
    10     6    31   ar
    11     6    32   ar
    12     7     8    1
    13     7     9    1
    14     7    14    1
    15     7    21    1
    16     8    11    1
    17     8    12    1
    18     8    33    1
    19     9    10    1
    20     9    17    1
    21     9    34    1
    22    10    13    1
    23    10    16    1
    24    10    22    1
    25    11    15    1
    26    11    18    1
    27    11    23    1
    28    12    13    1
    29    12    35    1
    30    13    36    1
    31    14    20    1
    32    14    37    1
    33    15    20    1
    34    15    38    1
    35    16    19    1
    36    16    26    2
    37    17    24    1
    38    17    39    1
    39    17    40    1
    40    18    41    1
    41    18    42    1
    42    19    24    1
    43    19    25    1
    44    19    28    1
    45    20    43    1
    46    20    44    1
    47    21    45    1
    48    21    46    1
    49    21    47    1
    50    22    48    1
    51    22    49    1
    52    22    50    1
    53    23    51    1
    54    23    52    1
    55    23    53    1
    56    25    27    1
    57    25    29    1
    58    25    54    1
    59    26    27    1
    60    26    55    1
    61    27    56    1
    62    27    57    1
    63    28    59    1
    64    28    60    1
    65    28    61    1
    66    29    30   ar
    67    29    31   ar
    68    30    32   ar
    69    30    64    1
    70    31    65    1
    71    32    66    1
