@<TRIPOS>MOLECULE
IMPHY005509
 61 64 0 0 0
SMALL
GASTEIGER

@<TRIPOS>ATOM
      1 O           8.1223   -2.0159    0.0000 O.3     1  UNL1       -0.4608
      2 O           5.5103    1.5125    0.0000 O.3     1  UNL1       -0.3888
      3 O           8.6855    1.8935    0.0000 O.3     1  UNL1       -0.3859
      4 O           7.2762    2.5503    0.0000 O.3     1  UNL1       -0.3744
      5 O           4.6497    1.0156    0.0000 O.2     1  UNL1       -0.2882
      6 O           2.8680    0.0052    0.0000 O.2     1  UNL1       -0.4919
      7 O           9.8438   -2.0487    0.0000 O.2     1  UNL1       -0.2508
      8 C           7.2641   -0.5190    0.0000 C.3     1  UNL1        0.0171
      9 C           6.3981   -0.0190    0.0000 C.3     1  UNL1        0.0095
     10 C           5.5320   -0.5190    0.0000 C.3     1  UNL1        0.0431
     11 C           8.1741   -0.0122    0.0000 C.3     1  UNL1        0.0093
     12 C           7.2641   -1.5190    0.0000 C.3     1  UNL1        0.1094
     13 C           5.5320   -1.5190    0.0000 C.3     1  UNL1       -0.0186
     14 C           6.3820    1.0225    0.0000 C.3     1  UNL1        0.0883
     15 C           8.1821    1.0294    0.0000 C.3     1  UNL1        0.0956
     16 C           6.3981   -2.0190    0.0000 C.3     1  UNL1       -0.0109
     17 C           7.2800    1.5503    0.0000 C.3     1  UNL1        0.1130
     18 C           7.2641    0.4810    0.0000 C.3     1  UNL1       -0.0555
     19 C           9.0134   -0.5404    0.0000 C.3     1  UNL1        0.0511
     20 C           4.6381   -2.0537    0.0000 C.3     1  UNL1       -0.0181
     21 C           5.5320    0.4810    0.0000 C.3     1  UNL1       -0.0517
     22 C           4.6381    0.0157    0.0000 C.2     1  UNL1        0.2034
     23 C           9.1821    1.0256    0.0000 C.3     1  UNL1       -0.0332
     24 C           8.9878   -1.5318    0.0000 C.2     1  UNL1        0.3077
     25 C           3.7320   -1.5398    0.0000 C.2     1  UNL1       -0.0356
     26 C           3.7320   -0.4982    0.0000 C.2     1  UNL1        0.1592
     27 C           4.6497   -3.0536    0.0000 C.3     1  UNL1       -0.0585
     28 C           8.1403    3.0536    0.0000 C.3     1  UNL1        0.0370
     29 C           2.0000   -0.4915    0.0000 C.3     1  UNL1        0.0789
     30 H           5.6587    0.4003    0.0000 H       1  UNL1        0.0343
     31 H           8.9198    0.3959    0.0000 H       1  UNL1        0.0341
     32 H           7.2636   -2.3690    0.0000 H       1  UNL1        0.0739
     33 H           5.5386   -2.3690    0.0000 H       1  UNL1        0.0317
     34 H           5.8493    0.7053    0.0000 H       1  UNL1        0.0623
     35 H           5.9995   -2.4939    0.0000 H       1  UNL1        0.0304
     36 H           6.7966   -2.4939    0.0000 H       1  UNL1        0.0304
     37 H           6.7413    1.8572    0.0000 H       1  UNL1        0.0651
     38 H           7.8841    0.4810    0.0000 H       1  UNL1        0.0236
     39 H           7.2641    1.1010    0.0000 H       1  UNL1        0.0236
     40 H           6.6441    0.4810    0.0000 H       1  UNL1        0.0236
     41 H           9.6205   -0.6663    0.0000 H       1  UNL1        0.0381
     42 H           9.2452    0.0347    0.0000 H       1  UNL1        0.0381
     43 H           4.1042   -2.3688    0.0000 H       1  UNL1        0.0344
     44 H           6.1520    0.4810    0.0000 H       1  UNL1        0.0239
     45 H           5.5320    1.1010    0.0000 H       1  UNL1        0.0239
     46 H           4.9120    0.4810    0.0000 H       1  UNL1        0.0239
     47 H           9.1797    0.4056    0.0000 H       1  UNL1        0.0258
     48 H           9.8021    1.0232    0.0000 H       1  UNL1        0.0258
     49 H           9.1845    1.6456    0.0000 H       1  UNL1        0.0258
     50 H           3.1963   -1.8519    0.0000 H       1  UNL1        0.0612
     51 H           5.5031    2.1324    0.0000 H       1  UNL1        0.2099
     52 H           9.3055    1.8912    0.0000 H       1  UNL1        0.2103
     53 H           4.0297   -3.0608    0.0000 H       1  UNL1        0.0235
     54 H           4.6568   -3.6736    0.0000 H       1  UNL1        0.0235
     55 H           5.2696   -3.0464    0.0000 H       1  UNL1        0.0235
     56 H           8.4523    2.5178    0.0000 H       1  UNL1        0.0524
     57 H           8.6760    3.3657    0.0000 H       1  UNL1        0.0524
     58 H           7.8282    3.5893    0.0000 H       1  UNL1        0.0524
     59 H           1.6921    0.0466    0.0000 H       1  UNL1        0.0660
     60 H           1.4619   -0.7994    0.0000 H       1  UNL1        0.0660
     61 H           2.3079   -1.0296    0.0000 H       1  UNL1        0.0660
@<TRIPOS>BOND
     1     1    12    1
     2     1    24    1
     3    14     2    1
     4     2    51    1
     5    15     3    1
     6     3    52    1
     7    17     4    1
     8     4    28    1
     9     5    22    2
    10     6    26    1
    11     6    29    1
    12     7    24    2
    13     8     9    1
    14     8    11    1
    15     8    12    1
    16     8    18    1
    17     9    10    1
    18     9    14    1
    19     9    30    1
    20    10    13    1
    21    10    21    1
    22    10    22    1
    23    11    15    1
    24    11    19    1
    25    11    31    1
    26    12    16    1
    27    12    32    1
    28    13    16    1
    29    13    20    1
    30    13    33    1
    31    14    17    1
    32    14    34    1
    33    15    17    1
    34    15    23    1
    35    16    35    1
    36    16    36    1
    37    17    37    1
    38    18    38    1
    39    18    39    1
    40    18    40    1
    41    19    24    1
    42    19    41    1
    43    19    42    1
    44    20    25    1
    45    20    27    1
    46    20    43    1
    47    21    44    1
    48    21    45    1
    49    21    46    1
    50    22    26    1
    51    23    47    1
    52    23    48    1
    53    23    49    1
    54    25    26    2
    55    25    50    1
    56    27    53    1
    57    27    54    1
    58    27    55    1
    59    28    56    1
    60    28    57    1
    61    28    58    1
    62    29    59    1
    63    29    60    1
    64    29    61    1
