@<TRIPOS>MOLECULE
IMPHY005212
 42 43 0 0 0
SMALL
GASTEIGER

@<TRIPOS>ATOM
      1 O           2.8660   -1.0950    0.0000 O.3     1  UNL1       -0.4942
      2 O           7.1962    0.4050    0.0000 O.3     1  UNL1       -0.4944
      3 O           8.9282    3.4050    0.0000 O.3     1  UNL1       -0.4950
      4 O           6.3301   -1.0950    0.0000 O.3     1  UNL1       -0.5058
      5 O           4.5981   -4.0950    0.0000 O.3     1  UNL1       -0.5065
      6 O           3.7320    0.4050    0.0000 O.2     1  UNL1       -0.2870
      7 C           4.5981   -1.0950    0.0000 C.ar    1  UNL1        0.1047
      8 C           6.3301    1.9050    0.0000 C.ar    1  UNL1        0.0170
      9 C           3.7320   -1.5950    0.0000 C.ar    1  UNL1        0.1379
     10 C           7.1962    1.4050    0.0000 C.ar    1  UNL1        0.1307
     11 C           5.4641   -1.5950    0.0000 C.ar    1  UNL1        0.1346
     12 C           4.5981   -0.0950    0.0000 C.2     1  UNL1        0.1931
     13 C           5.4641    1.4050    0.0000 C.2     1  UNL1       -0.0475
     14 C           6.3301    2.9050    0.0000 C.ar    1  UNL1       -0.0476
     15 C           5.4641    0.4050    0.0000 C.2     1  UNL1       -0.0134
     16 C           8.0622    1.9050    0.0000 C.ar    1  UNL1        0.0223
     17 C           3.7320   -2.5950    0.0000 C.ar    1  UNL1        0.0225
     18 C           8.0622    2.9050    0.0000 C.ar    1  UNL1        0.1236
     19 C           5.4641   -2.5950    0.0000 C.ar    1  UNL1        0.0223
     20 C           7.1962    3.4050    0.0000 C.ar    1  UNL1       -0.0192
     21 C           4.5981   -3.0950    0.0000 C.ar    1  UNL1        0.1238
     22 C           2.0000   -1.5950    0.0000 C.3     1  UNL1        0.0788
     23 C           8.0622   -0.0950    0.0000 C.3     1  UNL1        0.0788
     24 C           8.9282    4.4050    0.0000 C.3     1  UNL1        0.0788
     25 H           4.9272    1.7150    0.0000 H       1  UNL1        0.0626
     26 H           5.7932    3.2150    0.0000 H       1  UNL1        0.0626
     27 H           6.0010    0.0950    0.0000 H       1  UNL1        0.0656
     28 H           8.5991    1.5950    0.0000 H       1  UNL1        0.0691
     29 H           3.1951   -2.9050    0.0000 H       1  UNL1        0.0691
     30 H           6.0010   -2.9050    0.0000 H       1  UNL1        0.0691
     31 H           7.1962    4.0250    0.0000 H       1  UNL1        0.0654
     32 H           6.8671   -1.4050    0.0000 H       1  UNL1        0.2922
     33 H           1.6900   -1.0581    0.0000 H       1  UNL1        0.0660
     34 H           1.4631   -1.9050    0.0000 H       1  UNL1        0.0660
     35 H           2.3100   -2.1319    0.0000 H       1  UNL1        0.0660
     36 H           7.7522   -0.6319    0.0000 H       1  UNL1        0.0660
     37 H           8.5991   -0.4050    0.0000 H       1  UNL1        0.0660
     38 H           8.3722    0.4419    0.0000 H       1  UNL1        0.0660
     39 H           5.1350   -4.4050    0.0000 H       1  UNL1        0.2921
     40 H           9.5482    4.4050    0.0000 H       1  UNL1        0.0660
     41 H           8.9282    5.0250    0.0000 H       1  UNL1        0.0660
     42 H           8.3082    4.4050    0.0000 H       1  UNL1        0.0660
@<TRIPOS>BOND
     1     1     9    1
     2     1    22    1
     3     2    10    1
     4     2    23    1
     5     3    18    1
     6     3    24    1
     7     4    11    1
     8     4    32    1
     9     5    21    1
    10     5    39    1
    11     6    12    2
    12     7     9   ar
    13     7    11   ar
    14     7    12    1
    15     8    10   ar
    16     8    13    1
    17     8    14   ar
    18     9    17   ar
    19    10    16   ar
    20    11    19   ar
    21    12    15    1
    22    13    15    2
    23    13    25    1
    24    14    20   ar
    25    14    26    1
    26    15    27    1
    27    16    18   ar
    28    16    28    1
    29    17    21   ar
    30    17    29    1
    31    18    20   ar
    32    19    21   ar
    33    19    30    1
    34    20    31    1
    35    22    33    1
    36    22    34    1
    37    22    35    1
    38    23    36    1
    39    23    37    1
    40    23    38    1
    41    24    40    1
    42    24    41    1
    43    24    42    1
