@<TRIPOS>MOLECULE
IMPHY017869
 43 45 0 0 0
SMALL
GASTEIGER

@<TRIPOS>ATOM
      1 O           5.8374    1.7018    0.0000 O.3     1  UNL1       -0.3445
      2 O           6.0563   -1.2127    0.0000 O.3     1  UNL1       -0.3640
      3 C           4.9424   -0.8388    0.0000 C.3     1  UNL1        0.0272
      4 C           4.6004    0.1009    0.0000 C.3     1  UNL1       -0.0010
      5 C           6.3152   -0.2467    0.0000 C.3     1  UNL1        0.1733
      6 C           6.5740    0.7192    0.0000 C.3     1  UNL1        0.0683
      7 C           3.6070    0.0637    0.0000 C.3     1  UNL1       -0.0328
      8 C           4.1575   -1.4487    0.0000 C.3     1  UNL1       -0.0421
      9 C           3.3339   -0.8921    0.0000 C.3     1  UNL1       -0.0490
     10 C           8.0056    0.5215    0.0000 C.3     1  UNL1       -0.0170
     11 C           7.5868   -1.0414    0.0000 C.3     1  UNL1        0.0021
     12 C           5.2845   -1.7784    0.0000 C.3     1  UNL1       -0.0543
     13 C           8.3640   -0.4120    0.0000 C.3     1  UNL1       -0.0432
     14 C           2.9900    0.8506    0.0000 C.3     1  UNL1       -0.0435
     15 C           8.5503    1.3602    0.0000 C.3     1  UNL1       -0.0600
     16 C           2.0000    0.7097    0.0000 C.3     1  UNL1       -0.0624
     17 C           3.3630    1.7784    0.0000 C.3     1  UNL1       -0.0624
     18 H           4.4952    0.7119    0.0000 H       1  UNL1        0.0336
     19 H           6.8887    1.2534    0.0000 H       1  UNL1        0.0603
     20 H           2.9986   -0.0554    0.0000 H       1  UNL1        0.0307
     21 H           3.7583   -1.9231    0.0000 H       1  UNL1        0.0272
     22 H           4.5873   -1.8956    0.0000 H       1  UNL1        0.0272
     23 H           2.7590   -0.6600    0.0000 H       1  UNL1        0.0268
     24 H           3.0426   -1.4395    0.0000 H       1  UNL1        0.0268
     25 H           8.6222    0.4567    0.0000 H       1  UNL1        0.0323
     26 H           7.2023   -1.5277    0.0000 H       1  UNL1        0.0317
     27 H           8.0278   -1.4772    0.0000 H       1  UNL1        0.0317
     28 H           4.7019   -1.9905    0.0000 H       1  UNL1        0.0237
     29 H           5.4965   -2.3610    0.0000 H       1  UNL1        0.0237
     30 H           5.8671   -1.5664    0.0000 H       1  UNL1        0.0237
     31 H           8.7017   -0.9320    0.0000 H       1  UNL1        0.0270
     32 H           8.9164   -0.1306    0.0000 H       1  UNL1        0.0270
     33 H           2.6075    1.3385    0.0000 H       1  UNL1        0.0298
     34 H           9.0702    1.0225    0.0000 H       1  UNL1        0.0233
     35 H           8.8879    1.8802    0.0000 H       1  UNL1        0.0233
     36 H           8.0303    1.6979    0.0000 H       1  UNL1        0.0233
     37 H           6.4947   -1.6511    0.0000 H       1  UNL1        0.2128
     38 H           1.9126    1.3235    0.0000 H       1  UNL1        0.0232
     39 H           1.3862    0.6224    0.0000 H       1  UNL1        0.0232
     40 H           2.0873    0.0959    0.0000 H       1  UNL1        0.0232
     41 H           3.9383    1.5472    0.0000 H       1  UNL1        0.0232
     42 H           3.5943    2.3537    0.0000 H       1  UNL1        0.0232
     43 H           2.7878    2.0097    0.0000 H       1  UNL1        0.0232
@<TRIPOS>BOND
     1     1     5    1
     2     1     6    1
     3     2     5    1
     4     2    37    1
     5     3     4    1
     6     3     5    1
     7     3     8    1
     8     3    12    1
     9     4     6    1
    10     4     7    1
    11     4    18    1
    12     5    11    1
    13     6    10    1
    14     6    19    1
    15     7     9    1
    16     7    14    1
    17     7    20    1
    18     8     9    1
    19     8    21    1
    20     8    22    1
    21     9    23    1
    22     9    24    1
    23    10    13    1
    24    10    15    1
    25    10    25    1
    26    11    13    1
    27    11    26    1
    28    11    27    1
    29    12    28    1
    30    12    29    1
    31    12    30    1
    32    13    31    1
    33    13    32    1
    34    14    16    1
    35    14    17    1
    36    14    33    1
    37    15    34    1
    38    15    35    1
    39    15    36    1
    40    16    38    1
    41    16    39    1
    42    16    40    1
    43    17    41    1
    44    17    42    1
    45    17    43    1
