@<TRIPOS>MOLECULE
IMPHY009644
 21 20 0 0 0
SMALL
GASTEIGER

@<TRIPOS>ATOM
      1 O           5.4641    0.2500    0.0000 O.3     1  UNL1       -0.3800
      2 C           3.7320    0.2500    0.0000 C.3     1  UNL1       -0.0297
      3 C           2.8660   -0.2500    0.0000 C.3     1  UNL1       -0.0538
      4 C           4.5981   -0.2500    0.0000 C.3     1  UNL1        0.0476
      5 C           2.0000    0.2500    0.0000 C.3     1  UNL1       -0.0652
      6 C           6.3301   -0.2500    0.0000 C.3     1  UNL1        0.0448
      7 C           7.1962    0.2500    0.0000 C.3     1  UNL1       -0.0416
      8 H           4.1306    0.7249    0.0000 H       1  UNL1        0.0287
      9 H           3.3335    0.7249    0.0000 H       1  UNL1        0.0287
     10 H           2.4675   -0.7249    0.0000 H       1  UNL1        0.0263
     11 H           3.2646   -0.7249    0.0000 H       1  UNL1        0.0263
     12 H           4.1996   -0.7249    0.0000 H       1  UNL1        0.0560
     13 H           4.9966   -0.7249    0.0000 H       1  UNL1        0.0560
     14 H           2.3100    0.7869    0.0000 H       1  UNL1        0.0230
     15 H           1.4631    0.5600    0.0000 H       1  UNL1        0.0230
     16 H           1.6900   -0.2869    0.0000 H       1  UNL1        0.0230
     17 H           5.9316   -0.7249    0.0000 H       1  UNL1        0.0557
     18 H           6.7287   -0.7249    0.0000 H       1  UNL1        0.0557
     19 H           7.5062   -0.2869    0.0000 H       1  UNL1        0.0252
     20 H           7.7331    0.5600    0.0000 H       1  UNL1        0.0252
     21 H           6.8862    0.7869    0.0000 H       1  UNL1        0.0252
@<TRIPOS>BOND
     1     1     4    1
     2     1     6    1
     3     2     3    1
     4     2     4    1
     5     2     8    1
     6     2     9    1
     7     3     5    1
     8     3    10    1
     9     3    11    1
    10     4    12    1
    11     4    13    1
    12     5    14    1
    13     5    15    1
    14     5    16    1
    15     6     7    1
    16     6    17    1
    17     6    18    1
    18     7    19    1
    19     7    20    1
    20     7    21    1
