@<TRIPOS>MOLECULE
IMPHY016661
 38 40 0 0 0
SMALL
GASTEIGER

@<TRIPOS>ATOM
      1 O           4.3899   -2.8699    0.0000 O.2     1  UNL1       -0.3007
      2 C           4.0430   -0.2217    0.0000 C.3     1  UNL1       -0.0127
      3 C           3.1420    0.2121    0.0000 C.3     1  UNL1       -0.0287
      4 C           2.9195    1.1871    0.0000 C.3     1  UNL1       -0.0250
      5 C           3.5430    1.9689    0.0000 C.3     1  UNL1       -0.0142
      6 C           4.1499    0.9550    0.0000 C.3     1  UNL1       -0.0392
      7 C           3.9070   -1.2065    0.0000 C.3     1  UNL1        0.0207
      8 C           2.4569   -0.5082    0.0000 C.3     1  UNL1       -0.0485
      9 C           4.9440    0.2121    0.0000 C.3     1  UNL1       -0.0279
     10 C           2.9288   -1.3831    0.0000 C.3     1  UNL1       -0.0430
     11 C           4.5430    1.9689    0.0000 C.2     1  UNL1       -0.0729
     12 C           2.2616    1.9401    0.0000 C.3     1  UNL1       -0.0590
     13 C           2.0000    0.7940    0.0000 C.3     1  UNL1       -0.0590
     14 C           5.1665    1.1871    0.0000 C.2     1  UNL1       -0.0842
     15 C           4.6286   -1.8988    0.0000 C.2     1  UNL1        0.1239
     16 C           4.9769    2.8699    0.0000 C.3     1  UNL1       -0.0435
     17 H           2.3762    0.5809    0.0000 H       1  UNL1        0.0312
     18 H           3.3539    2.7976    0.0000 H       1  UNL1        0.0351
     19 H           4.7199    0.7112    0.0000 H       1  UNL1        0.0277
     20 H           4.5577    1.4220    0.0000 H       1  UNL1        0.0277
     21 H           3.7279   -1.8000    0.0000 H       1  UNL1        0.0380
     22 H           2.0551   -0.0360    0.0000 H       1  UNL1        0.0268
     23 H           1.9452   -0.8582    0.0000 H       1  UNL1        0.0268
     24 H           5.0820   -0.3923    0.0000 H       1  UNL1        0.0313
     25 H           5.5640    0.2121    0.0000 H       1  UNL1        0.0313
     26 H           2.3551   -1.6184    0.0000 H       1  UNL1        0.0272
     27 H           3.1025   -1.9783    0.0000 H       1  UNL1        0.0272
     28 H           2.7285    2.3481    0.0000 H       1  UNL1        0.0235
     29 H           1.8537    2.4070    0.0000 H       1  UNL1        0.0235
     30 H           1.7947    1.5322    0.0000 H       1  UNL1        0.0235
     31 H           1.7563    1.3642    0.0000 H       1  UNL1        0.0235
     32 H           1.4299    0.5504    0.0000 H       1  UNL1        0.0235
     33 H           2.2437    0.2239    0.0000 H       1  UNL1        0.0235
     34 H           5.7710    1.3250    0.0000 H       1  UNL1        0.0572
     35 H           5.2240   -1.7260    0.0000 H       1  UNL1        0.1029
     36 H           5.5355    2.6009    0.0000 H       1  UNL1        0.0274
     37 H           5.2459    3.4285    0.0000 H       1  UNL1        0.0274
     38 H           4.4183    3.1389    0.0000 H       1  UNL1        0.0274
@<TRIPOS>BOND
     1     1    15    2
     2     2     3    1
     3     2     6    1
     4     2     7    1
     5     2     9    1
     6     3     4    1
     7     3     8    1
     8     3    17    1
     9     4     5    1
    10     4    12    1
    11     4    13    1
    12     5     6    1
    13     5    11    1
    14     5    18    1
    15     6    19    1
    16     6    20    1
    17     7    10    1
    18     7    15    1
    19     7    21    1
    20     8    10    1
    21     8    22    1
    22     8    23    1
    23     9    14    1
    24     9    24    1
    25     9    25    1
    26    10    26    1
    27    10    27    1
    28    11    14    2
    29    11    16    1
    30    12    28    1
    31    12    29    1
    32    12    30    1
    33    13    31    1
    34    13    32    1
    35    13    33    1
    36    14    34    1
    37    15    35    1
    38    16    36    1
    39    16    37    1
    40    16    38    1
