@<TRIPOS>MOLECULE
IMPHY016224
 11 11 0 0 0
SMALL
GASTEIGER

@<TRIPOS>ATOM
      1 O           3.0878    1.6739    0.0000 O.2     1  UNL1       -0.2922
      2 O           2.0000   -1.6739    0.0000 O.2     1  UNL1       -0.2922
      3 C           2.2788    0.0861    0.0000 C.3     1  UNL1        0.0724
      4 C           3.0878    0.6739    0.0000 C.2     1  UNL1        0.1636
      5 C           2.5878   -0.8649    0.0000 C.2     1  UNL1        0.1636
      6 C           3.8968    0.0861    0.0000 C.2     1  UNL1       -0.0155
      7 C           3.5878   -0.8649    0.0000 C.2     1  UNL1       -0.0155
      8 H           1.9688    0.6231    0.0000 H       1  UNL1        0.0426
      9 H           1.7124   -0.1660    0.0000 H       1  UNL1        0.0426
     10 H           4.4865    0.2777    0.0000 H       1  UNL1        0.0653
     11 H           3.9522   -1.3665    0.0000 H       1  UNL1        0.0653
@<TRIPOS>BOND
     1     1     4    2
     2     2     5    2
     3     3     4    1
     4     3     5    1
     5     3     8    1
     6     3     9    1
     7     4     6    1
     8     5     7    1
     9     6     7    2
    10     6    10    1
    11     7    11    1
