@<TRIPOS>MOLECULE
IMPHY007830
 16 17 0 0 0
SMALL
GASTEIGER

@<TRIPOS>ATOM
      1 N           4.6660   -1.0000    0.0000 N.ar    1  UNL1       -0.2354
      2 N           5.5321    0.5000    0.0000 N.ar    1  UNL1       -0.2431
      3 C           3.8000    0.5000    0.0000 C.ar    1  UNL1        0.0185
      4 C           3.8000   -0.5000    0.0000 C.ar    1  UNL1        0.0742
      5 C           2.9061    1.0347    0.0000 C.ar    1  UNL1       -0.0511
      6 C           2.9061   -1.0347    0.0000 C.ar    1  UNL1       -0.0356
      7 C           2.0000    0.5208    0.0000 C.ar    1  UNL1       -0.0610
      8 C           4.6660    1.0000    0.0000 C.ar    1  UNL1        0.0385
      9 C           2.0000   -0.5208    0.0000 C.ar    1  UNL1       -0.0597
     10 C           5.5321   -0.5000    0.0000 C.ar    1  UNL1        0.1166
     11 H           2.9132    1.6546    0.0000 H       1  UNL1        0.0625
     12 H           2.9132   -1.6546    0.0000 H       1  UNL1        0.0639
     13 H           4.6660    1.6200    0.0000 H       1  UNL1        0.0837
     14 H           1.4643    0.8329    0.0000 H       1  UNL1        0.0618
     15 H           1.4643   -0.8329    0.0000 H       1  UNL1        0.0618
     16 H           6.0690   -0.8100    0.0000 H       1  UNL1        0.1047
@<TRIPOS>BOND
     1     1     4   ar
     2     1    10   ar
     3     2     8   ar
     4     2    10   ar
     5     3     4   ar
     6     3     5   ar
     7     3     8   ar
     8     4     6   ar
     9     5     7   ar
    10     5    11    1
    11     6     9   ar
    12     6    12    1
    13     7     9   ar
    14     7    14    1
    15     8    13    1
    16     9    15    1
    17    10    16    1
