@<TRIPOS>MOLECULE
IMPHY014298
 64 66 0 0 0
SMALL
GASTEIGER

@<TRIPOS>ATOM
      1 O           8.0901   -1.8105    0.0000 O.2     1  UNL1       -0.4618
      2 O          12.4602   -0.2417    0.0000 O.3     1  UNL1       -0.4910
      3 O           6.3301    1.2242    0.0000 O.3     1  UNL1       -0.5055
      4 O          10.7166    2.7516    0.0000 O.3     1  UNL1       -0.4913
      5 O           8.0785    1.2588    0.0000 O.2     1  UNL1       -0.2863
      6 O           4.5981   -1.7758    0.0000 O.3     1  UNL1       -0.5062
      7 O          12.4525    1.7583    0.0000 O.3     1  UNL1       -0.5009
      8 C           9.8602    0.2483    0.0000 C.ar    1  UNL1       -0.0006
      9 C          10.7282   -0.2483    0.0000 C.ar    1  UNL1        0.0098
     10 C           8.9962   -0.2550    0.0000 C.ar    1  UNL1        0.0649
     11 C           7.1962   -0.2758    0.0000 C.ar    1  UNL1        0.1063
     12 C           8.0901    0.2588    0.0000 C.ar    1  UNL1        0.2037
     13 C          10.7321   -1.2483    0.0000 C.3     1  UNL1       -0.0051
     14 C           7.1962   -1.2758    0.0000 C.ar    1  UNL1        0.1454
     15 C           5.4641   -0.2758    0.0000 C.ar    1  UNL1        0.0400
     16 C           6.3301    0.2242    0.0000 C.ar    1  UNL1        0.1381
     17 C          11.5923    0.2550    0.0000 C.ar    1  UNL1        0.1690
     18 C           9.8564    1.2483    0.0000 C.ar    1  UNL1       -0.0079
     19 C           4.5981    0.2242    0.0000 C.3     1  UNL1       -0.0023
     20 C           8.9962   -1.2966    0.0000 C.ar    1  UNL1        0.1039
     21 C           5.4641   -1.2758    0.0000 C.ar    1  UNL1        0.1273
     22 C           6.3301   -1.7758    0.0000 C.ar    1  UNL1        0.0234
     23 C          10.7205    1.7517    0.0000 C.ar    1  UNL1        0.1656
     24 C          11.5884    1.2550    0.0000 C.ar    1  UNL1        0.2013
     25 C          11.6000   -1.7450    0.0000 C.2     1  UNL1       -0.0808
     26 C           3.7320   -0.2758    0.0000 C.2     1  UNL1       -0.0807
     27 C          11.6039   -2.7450    0.0000 C.2     1  UNL1       -0.0793
     28 C           2.8660    0.2242    0.0000 C.2     1  UNL1       -0.0793
     29 C          12.4718   -3.2416    0.0000 C.3     1  UNL1       -0.0440
     30 C          10.7398   -3.2483    0.0000 C.3     1  UNL1       -0.0440
     31 C          13.3243    0.2617    0.0000 C.3     1  UNL1        0.0790
     32 C           2.0000   -0.2758    0.0000 C.3     1  UNL1       -0.0440
     33 C           2.8660    1.2242    0.0000 C.3     1  UNL1       -0.0440
     34 C           9.8487    3.2483    0.0000 C.3     1  UNL1        0.0790
     35 H          10.1211   -1.1430    0.0000 H       1  UNL1        0.0357
     36 H          10.5222   -1.8317    0.0000 H       1  UNL1        0.0357
     37 H           9.3183    1.5562    0.0000 H       1  UNL1        0.0661
     38 H           4.9966    0.6991    0.0000 H       1  UNL1        0.0358
     39 H           4.1996    0.6991    0.0000 H       1  UNL1        0.0358
     40 H           9.5319   -1.6087    0.0000 H       1  UNL1        0.1037
     41 H           6.3301   -2.3958    0.0000 H       1  UNL1        0.0691
     42 H          12.1357   -1.4329    0.0000 H       1  UNL1        0.0575
     43 H           3.7320   -0.8958    0.0000 H       1  UNL1        0.0575
     44 H           5.7932    1.5342    0.0000 H       1  UNL1        0.2922
     45 H           4.5981   -2.3958    0.0000 H       1  UNL1        0.2921
     46 H          12.1639   -3.7798    0.0000 H       1  UNL1        0.0274
     47 H          13.0099   -3.5496    0.0000 H       1  UNL1        0.0274
     48 H          12.7797   -2.7035    0.0000 H       1  UNL1        0.0274
     49 H          10.4277   -2.7126    0.0000 H       1  UNL1        0.0274
     50 H          10.2040   -3.5604    0.0000 H       1  UNL1        0.0274
     51 H          11.0518   -3.7840    0.0000 H       1  UNL1        0.0274
     52 H          12.4501    2.3783    0.0000 H       1  UNL1        0.2924
     53 H          13.6364   -0.2741    0.0000 H       1  UNL1        0.0660
     54 H          13.8601    0.5737    0.0000 H       1  UNL1        0.0660
     55 H          13.0123    0.7974    0.0000 H       1  UNL1        0.0660
     56 H           1.6900    0.2611    0.0000 H       1  UNL1        0.0274
     57 H           1.4631   -0.5858    0.0000 H       1  UNL1        0.0274
     58 H           2.3100   -0.8128    0.0000 H       1  UNL1        0.0274
     59 H           3.4860    1.2242    0.0000 H       1  UNL1        0.0274
     60 H           2.8660    1.8442    0.0000 H       1  UNL1        0.0274
     61 H           2.2460    1.2242    0.0000 H       1  UNL1        0.0274
     62 H          10.1566    3.7864    0.0000 H       1  UNL1        0.0660
     63 H           9.3106    3.5562    0.0000 H       1  UNL1        0.0660
     64 H           9.5408    2.7102    0.0000 H       1  UNL1        0.0660
@<TRIPOS>BOND
     1     1    14   ar
     2     1    20   ar
     3     2    17    1
     4     2    31    1
     5     3    16    1
     6     3    44    1
     7     4    23    1
     8     4    34    1
     9     5    12    2
    10     6    21    1
    11     6    45    1
    12     7    24    1
    13     7    52    1
    14     8     9   ar
    15     8    10    1
    16     8    18   ar
    17     9    13    1
    18     9    17   ar
    19    10    12   ar
    20    10    20   ar
    21    11    12   ar
    22    11    14   ar
    23    11    16   ar
    24    13    25    1
    25    13    35    1
    26    13    36    1
    27    14    22   ar
    28    15    16   ar
    29    15    19    1
    30    15    21   ar
    31    17    24   ar
    32    18    23   ar
    33    18    37    1
    34    19    26    1
    35    19    38    1
    36    19    39    1
    37    20    40    1
    38    21    22   ar
    39    22    41    1
    40    23    24   ar
    41    25    27    2
    42    25    42    1
    43    26    28    2
    44    26    43    1
    45    27    29    1
    46    27    30    1
    47    28    32    1
    48    28    33    1
    49    29    46    1
    50    29    47    1
    51    29    48    1
    52    30    49    1
    53    30    50    1
    54    30    51    1
    55    31    53    1
    56    31    54    1
    57    31    55    1
    58    32    56    1
    59    32    57    1
    60    32    58    1
    61    33    59    1
    62    33    60    1
    63    33    61    1
    64    34    62    1
    65    34    63    1
    66    34    64    1
