@<TRIPOS>MOLECULE
IMPHY000247
 89 91 0 0 0
SMALL
GASTEIGER

@<TRIPOS>ATOM
      1 O           5.7258   -0.7207    0.0000 O.3     1  UNL1       -0.4566
      2 O           4.3899   -3.1792    0.0000 O.2     1  UNL1       -0.3007
      3 O           5.9741    2.6353    0.0000 O.3     1  UNL1       -0.4773
      4 O           4.4136    3.3868    0.0000 O.2     1  UNL1       -0.2455
      5 O           6.8057    0.6335    0.0000 O.2     1  UNL1       -0.2508
      6 O          13.6566   -0.3991    0.0000 O.3     1  UNL1       -0.3892
      7 O          14.1403   -3.0002    0.0000 O.3     1  UNL1       -0.3892
      8 O          20.3583   -2.4205    0.0000 O.3     1  UNL1       -0.3950
      9 C           4.0430   -0.5311    0.0000 C.3     1  UNL1        0.0245
     10 C           3.1420   -0.0972    0.0000 C.3     1  UNL1       -0.0253
     11 C           2.9195    0.8778    0.0000 C.3     1  UNL1       -0.0244
     12 C           3.5430    1.6596    0.0000 C.3     1  UNL1       -0.0032
     13 C           4.1499    0.6457    0.0000 C.3     1  UNL1       -0.0352
     14 C           3.9070   -1.5158    0.0000 C.3     1  UNL1        0.0241
     15 C           2.4569   -0.8175    0.0000 C.3     1  UNL1       -0.0484
     16 C           4.9440   -0.0972    0.0000 C.3     1  UNL1        0.1285
     17 C           2.9288   -1.6924    0.0000 C.3     1  UNL1       -0.0428
     18 C           4.5430    1.6596    0.0000 C.2     1  UNL1        0.0396
     19 C           2.2616    1.6308    0.0000 C.3     1  UNL1       -0.0590
     20 C           2.0000    0.4847    0.0000 C.3     1  UNL1       -0.0590
     21 C           5.1665    0.8778    0.0000 C.2     1  UNL1       -0.0332
     22 C           4.6286   -2.2081    0.0000 C.2     1  UNL1        0.1240
     23 C           4.9769    2.5606    0.0000 C.2     1  UNL1        0.3329
     24 C           6.6567   -0.3553    0.0000 C.2     1  UNL1        0.3076
     25 C           7.4385   -0.9788    0.0000 C.3     1  UNL1        0.0450
     26 C           8.3694   -0.6135    0.0000 C.3     1  UNL1       -0.0430
     27 C           9.1512   -1.2370    0.0000 C.3     1  UNL1       -0.0526
     28 C          10.0821   -0.8716    0.0000 C.3     1  UNL1       -0.0530
     29 C          10.8639   -1.4951    0.0000 C.3     1  UNL1       -0.0530
     30 C          11.7948   -1.1298    0.0000 C.3     1  UNL1       -0.0506
     31 C          12.5766   -1.7532    0.0000 C.3     1  UNL1       -0.0244
     32 C          13.5075   -1.3879    0.0000 C.3     1  UNL1        0.0811
     33 C          14.2893   -2.0114    0.0000 C.3     1  UNL1        0.0811
     34 C          15.2202   -1.6461    0.0000 C.3     1  UNL1       -0.0244
     35 C          16.0020   -2.2696    0.0000 C.3     1  UNL1       -0.0506
     36 C          16.9329   -1.9042    0.0000 C.3     1  UNL1       -0.0529
     37 C          17.7148   -2.5277    0.0000 C.3     1  UNL1       -0.0510
     38 C          18.6456   -2.1624    0.0000 C.3     1  UNL1       -0.0297
     39 C          19.4275   -2.7858    0.0000 C.3     1  UNL1        0.0442
     40 H           2.3762    0.2716    0.0000 H       1  UNL1        0.0313
     41 H           3.3539    2.4883    0.0000 H       1  UNL1        0.0356
     42 H           4.7199    0.4019    0.0000 H       1  UNL1        0.0278
     43 H           4.5577    1.1127    0.0000 H       1  UNL1        0.0278
     44 H           3.7279   -2.1094    0.0000 H       1  UNL1        0.0381
     45 H           2.0551   -0.3453    0.0000 H       1  UNL1        0.0268
     46 H           1.9452   -1.1675    0.0000 H       1  UNL1        0.0268
     47 H           4.8746   -0.7133    0.0000 H       1  UNL1        0.0785
     48 H           2.3551   -1.9277    0.0000 H       1  UNL1        0.0272
     49 H           3.1025   -2.2876    0.0000 H       1  UNL1        0.0272
     50 H           1.7563    1.0548    0.0000 H       1  UNL1        0.0235
     51 H           1.4299    0.2411    0.0000 H       1  UNL1        0.0235
     52 H           2.7285    2.0388    0.0000 H       1  UNL1        0.0235
     53 H           2.2437   -0.0854    0.0000 H       1  UNL1        0.0235
     54 H           1.8537    2.0977    0.0000 H       1  UNL1        0.0235
     55 H           1.7947    1.2229    0.0000 H       1  UNL1        0.0235
     56 H           5.7710    1.0157    0.0000 H       1  UNL1        0.0614
     57 H           5.2240   -2.0353    0.0000 H       1  UNL1        0.1029
     58 H           6.2431    3.1939    0.0000 H       1  UNL1        0.2954
     59 H           6.9737   -1.3890    0.0000 H       1  UNL1        0.0377
     60 H           7.7618   -1.5078    0.0000 H       1  UNL1        0.0377
     61 H           8.8343   -0.2032    0.0000 H       1  UNL1        0.0270
     62 H           8.0461   -0.0844    0.0000 H       1  UNL1        0.0270
     63 H           8.6864   -1.6472    0.0000 H       1  UNL1        0.0265
     64 H           9.4745   -1.7660    0.0000 H       1  UNL1        0.0265
     65 H          10.5470   -0.4614    0.0000 H       1  UNL1        0.0265
     66 H           9.7588   -0.3426    0.0000 H       1  UNL1        0.0265
     67 H          10.3991   -1.9054    0.0000 H       1  UNL1        0.0265
     68 H          11.1872   -2.0242    0.0000 H       1  UNL1        0.0265
     69 H          12.2597   -0.7195    0.0000 H       1  UNL1        0.0266
     70 H          11.4715   -0.6007    0.0000 H       1  UNL1        0.0266
     71 H          12.1118   -2.1635    0.0000 H       1  UNL1        0.0291
     72 H          12.8999   -2.2823    0.0000 H       1  UNL1        0.0291
     73 H          14.0847   -1.1614    0.0000 H       1  UNL1        0.0619
     74 H          13.7122   -2.2379    0.0000 H       1  UNL1        0.0619
     75 H          15.6851   -1.2358    0.0000 H       1  UNL1        0.0291
     76 H          14.8969   -1.1170    0.0000 H       1  UNL1        0.0291
     77 H          15.5372   -2.6798    0.0000 H       1  UNL1        0.0266
     78 H          16.3253   -2.7986    0.0000 H       1  UNL1        0.0266
     79 H          17.3978   -1.4940    0.0000 H       1  UNL1        0.0265
     80 H          16.6096   -1.3752    0.0000 H       1  UNL1        0.0265
     81 H          14.2337   -0.1726    0.0000 H       1  UNL1        0.2099
     82 H          17.2499   -2.9380    0.0000 H       1  UNL1        0.0266
     83 H          18.0380   -3.0567    0.0000 H       1  UNL1        0.0266
     84 H          14.6250   -3.3868    0.0000 H       1  UNL1        0.2099
     85 H          19.1105   -1.7521    0.0000 H       1  UNL1        0.0287
     86 H          18.3223   -1.6333    0.0000 H       1  UNL1        0.0287
     87 H          18.9626   -3.1961    0.0000 H       1  UNL1        0.0557
     88 H          19.7507   -3.3149    0.0000 H       1  UNL1        0.0557
     89 H          20.8431   -2.8071    0.0000 H       1  UNL1        0.2094
@<TRIPOS>BOND
     1    16     1    1
     2     1    24    1
     3     2    22    2
     4     3    23    1
     5     3    58    1
     6     4    23    2
     7     5    24    2
     8    32     6    1
     9     6    81    1
    10    33     7    1
    11     7    84    1
    12     8    39    1
    13     8    89    1
    14     9    10    1
    15     9    13    1
    16     9    14    1
    17     9    16    1
    18    10    11    1
    19    10    15    1
    20    10    40    1
    21    11    12    1
    22    11    19    1
    23    11    20    1
    24    12    13    1
    25    12    18    1
    26    12    41    1
    27    13    42    1
    28    13    43    1
    29    14    17    1
    30    14    22    1
    31    14    44    1
    32    15    17    1
    33    15    45    1
    34    15    46    1
    35    16    21    1
    36    16    47    1
    37    17    48    1
    38    17    49    1
    39    18    21    2
    40    18    23    1
    41    19    52    1
    42    19    54    1
    43    19    55    1
    44    20    50    1
    45    20    51    1
    46    20    53    1
    47    21    56    1
    48    22    57    1
    49    24    25    1
    50    25    26    1
    51    25    59    1
    52    25    60    1
    53    26    27    1
    54    26    61    1
    55    26    62    1
    56    27    28    1
    57    27    63    1
    58    27    64    1
    59    28    29    1
    60    28    65    1
    61    28    66    1
    62    29    30    1
    63    29    67    1
    64    29    68    1
    65    30    31    1
    66    30    69    1
    67    30    70    1
    68    31    32    1
    69    31    71    1
    70    31    72    1
    71    32    33    1
    72    32    73    1
    73    33    34    1
    74    33    74    1
    75    34    35    1
    76    34    75    1
    77    34    76    1
    78    35    36    1
    79    35    77    1
    80    35    78    1
    81    36    37    1
    82    36    79    1
    83    36    80    1
    84    37    38    1
    85    37    82    1
    86    37    83    1
    87    38    39    1
    88    38    85    1
    89    38    86    1
    90    39    87    1
    91    39    88    1
