@<TRIPOS>MOLECULE
IMPHY007093
 27 28 0 0 0
SMALL
GASTEIGER

@<TRIPOS>ATOM
      1 N           5.9674    1.2025    0.0000 N.3     1  UNL1       -0.3041
      2 N           4.6783   -1.5637    0.0000 N.ar    1  UNL1       -0.3603
      3 C           4.6783    0.0458    0.0000 C.ar    1  UNL1       -0.0084
      4 C           3.7320   -0.2590    0.0000 C.ar    1  UNL1        0.0041
      5 C           4.9889    0.9963    0.0000 C.3     1  UNL1        0.0254
      6 C           3.7320   -1.2590    0.0000 C.ar    1  UNL1        0.0468
      7 C           5.2619   -0.7590    0.0000 C.ar    1  UNL1        0.0071
      8 C           2.8660    0.2410    0.0000 C.ar    1  UNL1       -0.0523
      9 C           2.8660   -1.7590    0.0000 C.ar    1  UNL1       -0.0378
     10 C           6.2781    2.1530    0.0000 C.3     1  UNL1       -0.0127
     11 C           6.6353    0.4582    0.0000 C.3     1  UNL1       -0.0127
     12 C           2.0000   -0.2590    0.0000 C.ar    1  UNL1       -0.0611
     13 C           2.0000   -1.2590    0.0000 C.ar    1  UNL1       -0.0598
     14 H           4.9684    1.6159    0.0000 H       1  UNL1        0.0476
     15 H           4.3751    1.0836    0.0000 H       1  UNL1        0.0476
     16 H           5.8819   -0.7590    0.0000 H       1  UNL1        0.0810
     17 H           4.8709   -2.1530    0.0000 H       1  UNL1        0.1653
     18 H           2.8660    0.8610    0.0000 H       1  UNL1        0.0624
     19 H           2.8660   -2.3790    0.0000 H       1  UNL1        0.0638
     20 H           6.1738    0.0441    0.0000 H       1  UNL1        0.0391
     21 H           7.0494   -0.0033    0.0000 H       1  UNL1        0.0391
     22 H           6.8674    1.9604    0.0000 H       1  UNL1        0.0391
     23 H           6.4707    2.7424    0.0000 H       1  UNL1        0.0391
     24 H           5.6888    2.3456    0.0000 H       1  UNL1        0.0391
     25 H           7.0968    0.8723    0.0000 H       1  UNL1        0.0391
     26 H           1.4631    0.0510    0.0000 H       1  UNL1        0.0618
     27 H           1.4631   -1.5690    0.0000 H       1  UNL1        0.0618
@<TRIPOS>BOND
     1     1     5    1
     2     1    10    1
     3     1    11    1
     4     2     6   ar
     5     2     7   ar
     6     2    17    1
     7     3     4   ar
     8     3     5    1
     9     3     7   ar
    10     4     6   ar
    11     4     8   ar
    12     5    14    1
    13     5    15    1
    14     6     9   ar
    15     7    16    1
    16     8    12   ar
    17     8    18    1
    18     9    13   ar
    19     9    19    1
    20    10    22    1
    21    10    23    1
    22    10    24    1
    23    11    20    1
    24    11    21    1
    25    11    25    1
    26    12    13   ar
    27    12    26    1
    28    13    27    1
