@<TRIPOS>MOLECULE
IMPHY006380
 33 33 0 0 0
SMALL
GASTEIGER

@<TRIPOS>ATOM
      1 O           4.2690    0.1550    0.0000 O.3     1  UNL1       -0.3405
      2 O           4.2690   -2.8450    0.0000 O.3     1  UNL1       -0.3864
      3 O           2.5369   -1.8450    0.0000 O.3     1  UNL1       -0.3865
      4 O           6.0010    0.1550    0.0000 O.3     1  UNL1       -0.3207
      5 O           6.0010   -1.8450    0.0000 O.3     1  UNL1       -0.3841
      6 O           2.5369    1.1550    0.0000 O.3     1  UNL1       -0.3924
      7 O           6.0010    3.1550    0.0000 O.co2   1  UNL1       -0.6016
      8 N           6.8671    1.6550    0.0000 N.2     1  UNL1       -0.0013
      9 N           6.8671    2.6550    0.0000 N.3     1  UNL1       -0.0953
     10 C           4.2690   -1.8450    0.0000 C.3     1  UNL1        0.1141
     11 C           3.4030   -1.3450    0.0000 C.3     1  UNL1        0.1119
     12 C           3.4030   -0.3450    0.0000 C.3     1  UNL1        0.1130
     13 C           5.1350   -1.3450    0.0000 C.3     1  UNL1        0.1342
     14 C           5.1350   -0.3450    0.0000 C.3     1  UNL1        0.1903
     15 C           2.5369    0.1550    0.0000 C.3     1  UNL1        0.0730
     16 C           6.0010    1.1550    0.0000 C.3     1  UNL1        0.2043
     17 C           7.7331    3.1550    0.0000 C.3     1  UNL1        0.1730
     18 H           4.8059   -2.1550    0.0000 H       1  UNL1        0.0648
     19 H           3.4030   -1.9650    0.0000 H       1  UNL1        0.0647
     20 H           5.6720   -1.0350    0.0000 H       1  UNL1        0.0671
     21 H           3.4030    0.2750    0.0000 H       1  UNL1        0.0647
     22 H           5.1350    0.2750    0.0000 H       1  UNL1        0.0938
     23 H           1.9264    0.2627    0.0000 H       1  UNL1        0.0584
     24 H           2.3249   -0.4276    0.0000 H       1  UNL1        0.0584
     25 H           3.7320   -3.1550    0.0000 H       1  UNL1        0.2100
     26 H           2.0000   -1.5350    0.0000 H       1  UNL1        0.2100
     27 H           6.5380   -1.5350    0.0000 H       1  UNL1        0.2101
     28 H           5.7890    1.7376    0.0000 H       1  UNL1        0.0876
     29 H           5.3905    1.0473    0.0000 H       1  UNL1        0.0876
     30 H           2.0000    1.4650    0.0000 H       1  UNL1        0.2095
     31 H           8.0431    2.6181    0.0000 H       1  UNL1        0.1028
     32 H           8.2700    3.4650    0.0000 H       1  UNL1        0.1028
     33 H           7.4231    3.6919    0.0000 H       1  UNL1        0.1028
@<TRIPOS>UNITY_ATOM_ATTR
7 1
charge -1
9 1
charge 1
@<TRIPOS>BOND
     1     1    12    1
     2     1    14    1
     3    10     2    1
     4     2    25    1
     5    11     3    1
     6     3    26    1
     7    14     4    1
     8     4    16    1
     9    13     5    1
    10     5    27    1
    11     6    15    1
    12     6    30    1
    13     7     9    1
    14     8     9    2
    15     8    16    1
    16     9    17    1
    17    10    11    1
    18    10    13    1
    19    10    18    1
    20    11    12    1
    21    11    19    1
    22    12    15    1
    23    12    21    1
    24    13    14    1
    25    13    20    1
    26    14    22    1
    27    15    23    1
    28    15    24    1
    29    16    28    1
    30    16    29    1
    31    17    31    1
    32    17    32    1
    33    17    33    1
