@<TRIPOS>MOLECULE
IMPHY002701
 35 36 0 0 0
SMALL
GASTEIGER

@<TRIPOS>ATOM
      1 O           5.1350   -0.0600    0.0000 O.3     1  UNL1       -0.3386
      2 O           6.0010    1.4400    0.0000 O.3     1  UNL1       -0.3445
      3 O           3.4030    1.9400    0.0000 O.3     1  UNL1       -0.3868
      4 O           2.5369    0.4400    0.0000 O.3     1  UNL1       -0.3861
      5 O           4.2690   -1.5600    0.0000 O.3     1  UNL1       -0.3819
      6 O           2.5369   -2.5600    0.0000 O.2     1  UNL1       -0.2982
      7 C           4.2690    0.4400    0.0000 C.3     1  UNL1        0.1185
      8 C           4.2690    1.4400    0.0000 C.3     1  UNL1        0.1072
      9 C           3.4030   -0.0600    0.0000 C.3     1  UNL1        0.1163
     10 C           5.1350    1.9400    0.0000 C.3     1  UNL1        0.0794
     11 C           6.0010    0.4400    0.0000 C.3     1  UNL1        0.1859
     12 C           3.4030   -1.0600    0.0000 C.3     1  UNL1        0.1382
     13 C           6.8671   -0.0600    0.0000 C.ar    1  UNL1        0.0079
     14 C           2.5369   -1.5600    0.0000 C.2     1  UNL1        0.1512
     15 C           6.8671   -1.0600    0.0000 C.ar    1  UNL1       -0.0538
     16 C           7.7331    0.4400    0.0000 C.ar    1  UNL1       -0.0538
     17 C           7.7331   -1.5600    0.0000 C.ar    1  UNL1       -0.0613
     18 C           8.5991   -0.0600    0.0000 C.ar    1  UNL1       -0.0613
     19 C           8.5991   -1.0600    0.0000 C.ar    1  UNL1       -0.0617
     20 H           4.2690   -0.4100    0.0000 H       1  UNL1        0.0651
     21 H           4.2690    2.0600    0.0000 H       1  UNL1        0.0643
     22 H           3.4030    0.5600    0.0000 H       1  UNL1        0.0650
     23 H           5.5335    2.4150    0.0000 H       1  UNL1        0.0587
     24 H           4.7365    2.4150    0.0000 H       1  UNL1        0.0587
     25 H           6.7372    0.8650    0.0000 H       1  UNL1        0.0964
     26 H           3.4030   -1.6800    0.0000 H       1  UNL1        0.0697
     27 H           3.4030    2.5600    0.0000 H       1  UNL1        0.2100
     28 H           2.0000    0.1300    0.0000 H       1  UNL1        0.2100
     29 H           2.0000   -1.2500    0.0000 H       1  UNL1        0.1055
     30 H           6.3301   -1.3700    0.0000 H       1  UNL1        0.0622
     31 H           7.7331    1.0600    0.0000 H       1  UNL1        0.0622
     32 H           4.2690   -2.1800    0.0000 H       1  UNL1        0.2105
     33 H           7.7331   -2.1800    0.0000 H       1  UNL1        0.0618
     34 H           9.1360    0.2500    0.0000 H       1  UNL1        0.0618
     35 H           9.1360   -1.3700    0.0000 H       1  UNL1        0.0618
@<TRIPOS>BOND
     1     1     7    1
     2     1    11    1
     3     2    10    1
     4     2    11    1
     5     8     3    1
     6     3    27    1
     7     9     4    1
     8     4    28    1
     9    12     5    1
    10     5    32    1
    11     6    14    2
    12     7     8    1
    13     7     9    1
    14     7    20    1
    15     8    10    1
    16     8    21    1
    17     9    12    1
    18     9    22    1
    19    10    23    1
    20    10    24    1
    21    11    13    1
    22    11    25    1
    23    12    14    1
    24    12    26    1
    25    13    15   ar
    26    13    16   ar
    27    14    29    1
    28    15    17   ar
    29    15    30    1
    30    16    18   ar
    31    16    31    1
    32    17    19   ar
    33    17    33    1
    34    18    19   ar
    35    18    34    1
    36    19    35    1
