@<TRIPOS>MOLECULE
IMPHY016119
 43 45 0 0 0
SMALL
GASTEIGER

@<TRIPOS>ATOM
      1 O           6.5278    2.9854    0.0000 O.3     1  UNL1       -0.3907
      2 C           2.6401   -1.9048    0.0000 C.3     1  UNL1       -0.0225
      3 C           2.2516   -3.0979    0.0000 C.3     1  UNL1       -0.0315
      4 C           2.8255   -2.6779    0.0000 C.3     1  UNL1       -0.0315
      5 C           3.6343   -1.7715    0.0000 C.3     1  UNL1       -0.0297
      6 C           4.3359   -2.5152    0.0000 C.3     1  UNL1       -0.0369
      7 C           3.6343   -3.4763    0.0000 C.3     1  UNL1       -0.0463
      8 C           3.4762   -2.8405    0.0000 C.3     1  UNL1       -0.0463
      9 C           2.0000   -1.1365    0.0000 C.3     1  UNL1       -0.0588
     10 C           4.0148   -0.8467    0.0000 C.3     1  UNL1       -0.0400
     11 C           5.0059   -0.7138    0.0000 C.3     1  UNL1       -0.0467
     12 C           3.4041   -0.0548    0.0000 C.3     1  UNL1       -0.0621
     13 C           5.3864    0.2110    0.0000 C.3     1  UNL1       -0.0342
     14 C           6.3775    0.3439    0.0000 C.2     1  UNL1       -0.0829
     15 C           6.7580    1.2686    0.0000 C.2     1  UNL1       -0.0515
     16 C           6.1474    2.0606    0.0000 C.3     1  UNL1        0.0650
     17 C           7.7491    1.4015    0.0000 C.3     1  UNL1       -0.0416
     18 H           1.7058   -3.3921    0.0000 H       1  UNL1        0.0309
     19 H           2.9447   -3.2863    0.0000 H       1  UNL1        0.0309
     20 H           3.2557   -1.2805    0.0000 H       1  UNL1        0.0311
     21 H           4.9546   -2.4763    0.0000 H       1  UNL1        0.0304
     22 H           3.3995   -4.0502    0.0000 H       1  UNL1        0.0271
     23 H           4.1755   -3.7787    0.0000 H       1  UNL1        0.0271
     24 H           3.1436   -3.3637    0.0000 H       1  UNL1        0.0271
     25 H           3.4400   -2.2216    0.0000 H       1  UNL1        0.0271
     26 H           2.4763   -0.7396    0.0000 H       1  UNL1        0.0235
     27 H           1.6031   -0.6601    0.0000 H       1  UNL1        0.0235
     28 H           1.5237   -1.5333    0.0000 H       1  UNL1        0.0235
     29 H           4.2507   -0.2733    0.0000 H       1  UNL1        0.0301
     30 H           4.9803   -1.3333    0.0000 H       1  UNL1        0.0271
     31 H           5.6115   -0.8466    0.0000 H       1  UNL1        0.0271
     32 H           3.8951    0.3238    0.0000 H       1  UNL1        0.0233
     33 H           3.0255    0.4362    0.0000 H       1  UNL1        0.0233
     34 H           2.9131   -0.4334    0.0000 H       1  UNL1        0.0233
     35 H           5.4120    0.8305    0.0000 H       1  UNL1        0.0307
     36 H           4.7808    0.3437    0.0000 H       1  UNL1        0.0307
     37 H           6.7561   -0.1471    0.0000 H       1  UNL1        0.0572
     38 H           5.6237    2.3924    0.0000 H       1  UNL1        0.0604
     39 H           5.7296    1.6025    0.0000 H       1  UNL1        0.0604
     40 H           7.8315    0.7870    0.0000 H       1  UNL1        0.0275
     41 H           8.3636    1.4839    0.0000 H       1  UNL1        0.0275
     42 H           7.6668    2.0160    0.0000 H       1  UNL1        0.0275
     43 H           6.1492    3.4763    0.0000 H       1  UNL1        0.2098
@<TRIPOS>BOND
     1     1    16    1
     2     1    43    1
     3     2     3    1
     4     2     4    1
     5     2     5    1
     6     2     9    1
     7     3     4    1
     8     3     7    1
     9     3    18    1
    10     4     8    1
    11     4    19    1
    12     5     6    1
    13     5    10    1
    14     5    20    1
    15     6     7    1
    16     6     8    1
    17     6    21    1
    18     7    22    1
    19     7    23    1
    20     8    24    1
    21     8    25    1
    22     9    26    1
    23     9    27    1
    24     9    28    1
    25    10    11    1
    26    10    12    1
    27    10    29    1
    28    11    13    1
    29    11    30    1
    30    11    31    1
    31    12    32    1
    32    12    33    1
    33    12    34    1
    34    13    14    1
    35    13    35    1
    36    13    36    1
    37    14    15    2
    38    14    37    1
    39    15    16    1
    40    15    17    1
    41    16    38    1
    42    16    39    1
    43    17    40    1
    44    17    41    1
    45    17    42    1
