@<TRIPOS>MOLECULE
IMPHY012280
 86 90 0 0 0
SMALL
GASTEIGER

@<TRIPOS>ATOM
      1 O           3.7320   -2.6896    0.0000 O.3     1  UNL1       -0.4610
      2 O           2.8718   -1.1862    0.0000 O.2     1  UNL1       -0.2512
      3 C           8.2591   -1.1372    0.0000 C.3     1  UNL1       -0.0231
      4 C           9.1251   -0.6372    0.0000 C.3     1  UNL1       -0.0233
      5 C           7.3931   -0.6372    0.0000 C.3     1  UNL1       -0.0294
      6 C           9.1251    0.3628    0.0000 C.3     1  UNL1       -0.0313
      7 C           6.4831   -1.1441    0.0000 C.3     1  UNL1       -0.0252
      8 C          10.0191    0.8974    0.0000 C.3     1  UNL1       -0.0258
      9 C          10.9251    0.3836    0.0000 C.3     1  UNL1       -0.0284
     10 C           6.4750   -2.1857    0.0000 C.3     1  UNL1       -0.0268
     11 C          10.0191   -1.1719    0.0000 C.3     1  UNL1       -0.0464
     12 C           8.2752   -2.1788    0.0000 C.3     1  UNL1       -0.0466
     13 C           7.3931    0.3628    0.0000 C.3     1  UNL1       -0.0489
     14 C           8.2591    0.8628    0.0000 C.3     1  UNL1       -0.0491
     15 C          10.9251   -0.6581    0.0000 C.3     1  UNL1       -0.0468
     16 C           7.3771   -2.7065    0.0000 C.3     1  UNL1       -0.0486
     17 C          10.2292    1.9113    0.0000 C.3     1  UNL1       -0.0168
     18 C           5.5396   -2.7354    0.0000 C.3     1  UNL1        0.0055
     19 C           5.5562   -0.5800    0.0000 C.3     1  UNL1       -0.0437
     20 C           8.9019   -1.9033    0.0000 C.3     1  UNL1       -0.0588
     21 C           9.4672   -1.5769    0.0000 C.3     1  UNL1       -0.0588
     22 C          11.6875    1.0843    0.0000 C.3     1  UNL1       -0.0468
     23 C          11.2582    2.0266    0.0000 C.3     1  UNL1       -0.0457
     24 C           6.4908   -0.1441    0.0000 C.3     1  UNL1       -0.0590
     25 C           4.6000   -2.1929    0.0000 C.3     1  UNL1        0.1084
     26 C           4.6084   -1.1080    0.0000 C.3     1  UNL1       -0.0146
     27 C          11.7950   -0.1097    0.0000 C.3     1  UNL1       -0.0593
     28 C           5.0430   -3.6034    0.0000 C.3     1  UNL1       -0.0562
     29 C           6.0430   -3.5995    0.0000 C.3     1  UNL1       -0.0562
     30 C           9.5556    2.6505    0.0000 C.2     1  UNL1       -0.0763
     31 C           9.8589    3.6034    0.0000 C.3     1  UNL1       -0.0438
     32 C           8.5787    2.4367    0.0000 C.2     1  UNL1       -0.0994
     33 C           2.8680   -2.1862    0.0000 C.2     1  UNL1        0.3042
     34 C           2.0000   -2.6829    0.0000 C.3     1  UNL1        0.0332
     35 H           8.1292   -0.2122    0.0000 H       1  UNL1        0.0312
     36 H           9.1186    1.2127    0.0000 H       1  UNL1        0.0309
     37 H           9.3263    1.3900    0.0000 H       1  UNL1        0.0315
     38 H           6.4783   -3.0357    0.0000 H       1  UNL1        0.0312
     39 H           9.6145   -1.6417    0.0000 H       1  UNL1        0.0271
     40 H          10.4127   -1.6509    0.0000 H       1  UNL1        0.0271
     41 H           8.4932   -2.7592    0.0000 H       1  UNL1        0.0271
     42 H           8.8843   -2.0632    0.0000 H       1  UNL1        0.0271
     43 H           7.1810    0.9454    0.0000 H       1  UNL1        0.0268
     44 H           6.7825    0.2551    0.0000 H       1  UNL1        0.0268
     45 H           8.6576    1.3377    0.0000 H       1  UNL1        0.0268
     46 H           7.8606    1.3377    0.0000 H       1  UNL1        0.0268
     47 H          11.1342   -1.2418    0.0000 H       1  UNL1        0.0271
     48 H          11.5360   -0.5520    0.0000 H       1  UNL1        0.0271
     49 H           6.9798   -3.1825    0.0000 H       1  UNL1        0.0268
     50 H           7.7781   -3.1794    0.0000 H       1  UNL1        0.0268
     51 H           9.6312    1.7476    0.0000 H       1  UNL1        0.0348
     52 H           5.9644   -0.1134    0.0000 H       1  UNL1        0.0272
     53 H           5.1663   -0.0980    0.0000 H       1  UNL1        0.0272
     54 H           8.4269   -2.3018    0.0000 H       1  UNL1        0.0235
     55 H           9.3004   -2.3782    0.0000 H       1  UNL1        0.0235
     56 H           9.3768   -1.5048    0.0000 H       1  UNL1        0.0235
     57 H           8.8846   -1.7890    0.0000 H       1  UNL1        0.0235
     58 H           9.6794   -2.1595    0.0000 H       1  UNL1        0.0235
     59 H          10.0498   -1.3648    0.0000 H       1  UNL1        0.0235
     60 H          12.0567    0.5863    0.0000 H       1  UNL1        0.0271
     61 H          12.2215    1.3992    0.0000 H       1  UNL1        0.0271
     62 H          11.8463    2.2229    0.0000 H       1  UNL1        0.0271
     63 H          11.1248    2.6321    0.0000 H       1  UNL1        0.0271
     64 H           7.1108   -0.1489    0.0000 H       1  UNL1        0.0235
     65 H           6.4956    0.4759    0.0000 H       1  UNL1        0.0235
     66 H           5.8708   -0.1393    0.0000 H       1  UNL1        0.0235
     67 H           4.0648   -1.8798    0.0000 H       1  UNL1        0.0739
     68 H           4.4038   -0.5227    0.0000 H       1  UNL1        0.0301
     69 H           3.9967   -1.2093    0.0000 H       1  UNL1        0.0301
     70 H          11.4891   -0.6490    0.0000 H       1  UNL1        0.0235
     71 H          12.3343   -0.4156    0.0000 H       1  UNL1        0.0235
     72 H          12.1008    0.4296    0.0000 H       1  UNL1        0.0235
     73 H           4.5048   -3.2954    0.0000 H       1  UNL1        0.0236
     74 H           4.7350   -4.1415    0.0000 H       1  UNL1        0.0236
     75 H           5.5811   -3.9113    0.0000 H       1  UNL1        0.0236
     76 H           5.5072   -3.9116    0.0000 H       1  UNL1        0.0236
     77 H           6.3550   -4.1352    0.0000 H       1  UNL1        0.0236
     78 H           6.5787   -3.2874    0.0000 H       1  UNL1        0.0236
     79 H          10.4497    3.4153    0.0000 H       1  UNL1        0.0274
     80 H          10.0470    4.1941    0.0000 H       1  UNL1        0.0274
     81 H           9.2681    3.7914    0.0000 H       1  UNL1        0.0274
     82 H           8.1611    2.8950    0.0000 H       1  UNL1        0.0534
     83 H           8.3907    1.8459    0.0000 H       1  UNL1        0.0534
     84 H           1.6921   -2.1448    0.0000 H       1  UNL1        0.0342
     85 H           1.4619   -2.9908    0.0000 H       1  UNL1        0.0342
     86 H           2.3079   -3.2210    0.0000 H       1  UNL1        0.0342
@<TRIPOS>BOND
     1    25     1    1
     2     1    33    1
     3     2    33    2
     4     3     4    1
     5     3     5    1
     6     3    12    1
     7     3    20    1
     8     4     6    1
     9     4    11    1
    10     4    21    1
    11     5     7    1
    12     5    13    1
    13     5    35    1
    14     6     8    1
    15     6    14    1
    16     6    36    1
    17     7    10    1
    18     7    19    1
    19     7    24    1
    20     8     9    1
    21     8    17    1
    22     8    37    1
    23     9    15    1
    24     9    22    1
    25     9    27    1
    26    10    16    1
    27    10    18    1
    28    10    38    1
    29    11    15    1
    30    11    39    1
    31    11    40    1
    32    12    16    1
    33    12    41    1
    34    12    42    1
    35    13    14    1
    36    13    43    1
    37    13    44    1
    38    14    45    1
    39    14    46    1
    40    15    47    1
    41    15    48    1
    42    16    49    1
    43    16    50    1
    44    17    23    1
    45    17    30    1
    46    17    51    1
    47    18    25    1
    48    18    28    1
    49    18    29    1
    50    19    26    1
    51    19    52    1
    52    19    53    1
    53    20    54    1
    54    20    55    1
    55    20    56    1
    56    21    57    1
    57    21    58    1
    58    21    59    1
    59    22    23    1
    60    22    60    1
    61    22    61    1
    62    23    62    1
    63    23    63    1
    64    24    64    1
    65    24    65    1
    66    24    66    1
    67    25    26    1
    68    25    67    1
    69    26    68    1
    70    26    69    1
    71    27    70    1
    72    27    71    1
    73    27    72    1
    74    28    73    1
    75    28    74    1
    76    28    75    1
    77    29    76    1
    78    29    77    1
    79    29    78    1
    80    30    31    1
    81    30    32    2
    82    31    79    1
    83    31    80    1
    84    31    81    1
    85    32    82    1
    86    32    83    1
    87    33    34    1
    88    34    84    1
    89    34    85    1
    90    34    86    1
