@<TRIPOS>MOLECULE
IMPHY016533
 41 42 0 0 0
SMALL
GASTEIGER

@<TRIPOS>ATOM
      1 O           2.5369   -1.2621    0.0000 O.3     1  UNL1       -0.3877
      2 O           9.5312    0.7688    0.0000 O.3     1  UNL1       -0.3907
      3 C           5.1350   -0.7621    0.0000 C.3     1  UNL1       -0.0229
      4 C           5.1350    0.2379    0.0000 C.3     1  UNL1       -0.0141
      5 C           6.0290   -1.2967    0.0000 C.3     1  UNL1       -0.0464
      6 C           6.0290    0.7726    0.0000 C.3     1  UNL1       -0.0394
      7 C           4.2690   -1.2621    0.0000 C.3     1  UNL1       -0.0173
      8 C           6.9350    0.2587    0.0000 C.3     1  UNL1       -0.0174
      9 C           6.9350   -0.7829    0.0000 C.3     1  UNL1       -0.0459
     10 C           4.2690    0.7379    0.0000 C.2     1  UNL1       -0.0705
     11 C           5.1350   -1.7621    0.0000 C.3     1  UNL1       -0.0589
     12 C           3.4030   -0.7621    0.0000 C.3     1  UNL1        0.0741
     13 C           3.4030    0.2379    0.0000 C.2     1  UNL1       -0.0566
     14 C           7.7991    0.7621    0.0000 C.2     1  UNL1       -0.0485
     15 C           4.2690    1.7379    0.0000 C.3     1  UNL1       -0.0434
     16 C           8.6671    0.2654    0.0000 C.3     1  UNL1        0.0653
     17 C           7.7953    1.7621    0.0000 C.2     1  UNL1       -0.0970
     18 H           5.1302    0.8579    0.0000 H       1  UNL1        0.0351
     19 H           5.6244   -1.7665    0.0000 H       1  UNL1        0.0271
     20 H           6.4226   -1.7758    0.0000 H       1  UNL1        0.0271
     21 H           6.4226    1.2516    0.0000 H       1  UNL1        0.0277
     22 H           5.6244    1.2424    0.0000 H       1  UNL1        0.0277
     23 H           3.8705   -1.7370    0.0000 H       1  UNL1        0.0299
     24 H           4.6675   -1.7370    0.0000 H       1  UNL1        0.0299
     25 H           7.4726   -0.0502    0.0000 H       1  UNL1        0.0346
     26 H           7.1441   -1.3666    0.0000 H       1  UNL1        0.0271
     27 H           7.5459   -0.6768    0.0000 H       1  UNL1        0.0271
     28 H           4.5150   -1.7621    0.0000 H       1  UNL1        0.0235
     29 H           5.1350   -2.3821    0.0000 H       1  UNL1        0.0235
     30 H           5.7550   -1.7621    0.0000 H       1  UNL1        0.0235
     31 H           3.4030   -1.3821    0.0000 H       1  UNL1        0.0638
     32 H           2.8660    0.5479    0.0000 H       1  UNL1        0.0597
     33 H           4.8890    1.7379    0.0000 H       1  UNL1        0.0274
     34 H           4.2690    2.3579    0.0000 H       1  UNL1        0.0274
     35 H           3.6490    1.7379    0.0000 H       1  UNL1        0.0274
     36 H           2.0000   -0.9521    0.0000 H       1  UNL1        0.2102
     37 H           8.2704   -0.2111    0.0000 H       1  UNL1        0.0604
     38 H           9.0674   -0.2080    0.0000 H       1  UNL1        0.0604
     39 H           8.3310    2.0741    0.0000 H       1  UNL1        0.0535
     40 H           7.2571    2.0700    0.0000 H       1  UNL1        0.0535
     41 H          10.0693    0.4608    0.0000 H       1  UNL1        0.2098
@<TRIPOS>BOND
     1     1    12    1
     2     1    36    1
     3     2    16    1
     4     2    41    1
     5     3     4    1
     6     3     5    1
     7     3     7    1
     8     3    11    1
     9     4     6    1
    10     4    10    1
    11     4    18    1
    12     5     9    1
    13     5    19    1
    14     5    20    1
    15     6     8    1
    16     6    21    1
    17     6    22    1
    18     7    12    1
    19     7    23    1
    20     7    24    1
    21     8     9    1
    22     8    14    1
    23     8    25    1
    24     9    26    1
    25     9    27    1
    26    10    13    2
    27    10    15    1
    28    11    28    1
    29    11    29    1
    30    11    30    1
    31    12    13    1
    32    12    31    1
    33    13    32    1
    34    14    16    1
    35    14    17    2
    36    15    33    1
    37    15    34    1
    38    15    35    1
    39    16    37    1
    40    16    38    1
    41    17    39    1
    42    17    40    1
