@<TRIPOS>MOLECULE
IMPHY012328
 29 30 0 0 0
SMALL
GASTEIGER

@<TRIPOS>ATOM
      1 C           2.8660   -0.5843    0.0000 C.3     1  UNL1       -0.0059
      2 C           2.0000   -0.0843    0.0000 C.3     1  UNL1       -0.0253
      3 C           3.7320   -0.0843    0.0000 C.ar    1  UNL1       -0.0343
      4 C           2.3660   -1.4503    0.0000 C.3     1  UNL1       -0.0555
      5 C           3.3660   -1.4503    0.0000 C.3     1  UNL1       -0.0555
      6 C           3.7320    0.9157    0.0000 C.ar    1  UNL1       -0.0214
      7 C           2.0000    0.9157    0.0000 C.2     1  UNL1       -0.0826
      8 C           2.8660    1.4157    0.0000 C.2     1  UNL1       -0.0582
      9 C           4.6260   -0.6190    0.0000 C.ar    1  UNL1       -0.0572
     10 C           4.6260    1.4503    0.0000 C.ar    1  UNL1       -0.0514
     11 C           5.5321    0.9365    0.0000 C.ar    1  UNL1       -0.0499
     12 C           5.5321   -0.1051    0.0000 C.ar    1  UNL1       -0.0585
     13 C           6.3961    1.4398    0.0000 C.3     1  UNL1       -0.0397
     14 H           1.3894    0.0233    0.0000 H       1  UNL1        0.0316
     15 H           1.7880   -0.6669    0.0000 H       1  UNL1        0.0316
     16 H           1.8291   -1.1403    0.0000 H       1  UNL1        0.0238
     17 H           2.0560   -1.9873    0.0000 H       1  UNL1        0.0238
     18 H           2.9030   -1.7603    0.0000 H       1  UNL1        0.0238
     19 H           2.8291   -1.7603    0.0000 H       1  UNL1        0.0238
     20 H           3.6760   -1.9873    0.0000 H       1  UNL1        0.0238
     21 H           3.9030   -1.1403    0.0000 H       1  UNL1        0.0238
     22 H           1.4631    1.2257    0.0000 H       1  UNL1        0.0572
     23 H           2.8660    2.0357    0.0000 H       1  UNL1        0.0620
     24 H           4.6188   -1.2389    0.0000 H       1  UNL1        0.0621
     25 H           4.6188    2.0703    0.0000 H       1  UNL1        0.0626
     26 H           6.0678   -0.4172    0.0000 H       1  UNL1        0.0620
     27 H           6.7082    0.9041    0.0000 H       1  UNL1        0.0278
     28 H           6.9319    1.7519    0.0000 H       1  UNL1        0.0278
     29 H           6.0841    1.9756    0.0000 H       1  UNL1        0.0278
@<TRIPOS>BOND
     1     1     2    1
     2     1     3    1
     3     1     4    1
     4     1     5    1
     5     2     7    1
     6     2    14    1
     7     2    15    1
     8     3     6   ar
     9     3     9   ar
    10     4    16    1
    11     4    17    1
    12     4    18    1
    13     5    19    1
    14     5    20    1
    15     5    21    1
    16     6     8    1
    17     6    10   ar
    18     7     8    2
    19     7    22    1
    20     8    23    1
    21     9    12   ar
    22     9    24    1
    23    10    11   ar
    24    10    25    1
    25    11    12   ar
    26    11    13    1
    27    12    26    1
    28    13    27    1
    29    13    28    1
    30    13    29    1
