@<TRIPOS>MOLECULE
IMPHY013632
 51 54 0 0 0
SMALL
GASTEIGER

@<TRIPOS>ATOM
      1 O           9.0564    0.5208    0.0000 O.3     1  UNL1       -0.3609
      2 O           9.9320   -1.9758    0.0000 O.3     1  UNL1       -0.3862
      3 O          11.6602   -0.9692    0.0000 O.3     1  UNL1       -0.3865
      4 O          11.6525    1.0308    0.0000 O.3     1  UNL1       -0.3865
      5 O          10.7807    2.5275    0.0000 O.3     1  UNL1       -0.3924
      6 O           7.2785    0.5313    0.0000 O.3     1  UNL1       -0.5054
      7 O           5.5301   -2.5033    0.0000 O.2     1  UNL1       -0.4542
      8 O           9.0602   -2.5275    0.0000 O.3     1  UNL1       -0.5062
      9 O           5.5301    0.4967    0.0000 O.2     1  UNL1       -0.2863
     10 O           2.0000   -0.4792    0.0000 O.3     1  UNL1       -0.4914
     11 O           2.0000   -2.5275    0.0000 O.3     1  UNL1       -0.5032
     12 C           9.9282   -0.9758    0.0000 C.3     1  UNL1        0.1139
     13 C          10.7923   -0.4725    0.0000 C.3     1  UNL1        0.1121
     14 C           9.0602   -0.4792    0.0000 C.3     1  UNL1        0.1193
     15 C          10.7884    0.5275    0.0000 C.3     1  UNL1        0.1117
     16 C           9.9205    1.0241    0.0000 C.3     1  UNL1        0.1108
     17 C           8.1962   -0.9825    0.0000 C.ar    1  UNL1        0.0673
     18 C           9.9166    2.0241    0.0000 C.3     1  UNL1        0.0729
     19 C           7.2901   -0.4687    0.0000 C.ar    1  UNL1        0.1404
     20 C           8.1962   -2.0241    0.0000 C.ar    1  UNL1        0.1296
     21 C           6.3961   -1.0033    0.0000 C.ar    1  UNL1        0.1064
     22 C           6.3961   -2.0033    0.0000 C.ar    1  UNL1        0.1463
     23 C           7.2901   -2.5380    0.0000 C.ar    1  UNL1        0.0235
     24 C           5.5301   -0.5033    0.0000 C.ar    1  UNL1        0.2038
     25 C           4.6641   -1.0033    0.0000 C.ar    1  UNL1        0.0684
     26 C           4.6641   -2.0033    0.0000 C.ar    1  UNL1        0.1430
     27 C           3.7702   -0.4687    0.0000 C.ar    1  UNL1       -0.0019
     28 C           3.7702   -2.5380    0.0000 C.ar    1  UNL1        0.0265
     29 C           2.8641   -0.9825    0.0000 C.ar    1  UNL1        0.1622
     30 C           2.8641   -2.0241    0.0000 C.ar    1  UNL1        0.1620
     31 C           2.0038    0.5208    0.0000 C.3     1  UNL1        0.0790
     32 H           9.3925   -1.2879    0.0000 H       1  UNL1        0.0649
     33 H          10.7947   -1.0925    0.0000 H       1  UNL1        0.0647
     34 H           8.3225   -0.0570    0.0000 H       1  UNL1        0.0676
     35 H          10.7860    1.1475    0.0000 H       1  UNL1        0.0647
     36 H           9.3824    1.3321    0.0000 H       1  UNL1        0.0646
     37 H           9.7023    2.6059    0.0000 H       1  UNL1        0.0584
     38 H           9.3065    1.9141    0.0000 H       1  UNL1        0.0584
     39 H          10.4702   -2.2838    0.0000 H       1  UNL1        0.2100
     40 H          12.1960   -0.6571    0.0000 H       1  UNL1        0.2100
     41 H          12.1907    0.7229    0.0000 H       1  UNL1        0.2100
     42 H           7.2829   -3.1580    0.0000 H       1  UNL1        0.0691
     43 H          10.7783    3.1475    0.0000 H       1  UNL1        0.2095
     44 H           6.7380    0.8350    0.0000 H       1  UNL1        0.2922
     45 H           9.0579   -3.1475    0.0000 H       1  UNL1        0.2922
     46 H           3.7773    0.1513    0.0000 H       1  UNL1        0.0663
     47 H           3.7773   -3.1580    0.0000 H       1  UNL1        0.0692
     48 H           2.0024   -3.1475    0.0000 H       1  UNL1        0.2923
     49 H           2.6238    0.5184    0.0000 H       1  UNL1        0.0660
     50 H           2.0062    1.1408    0.0000 H       1  UNL1        0.0660
     51 H           1.3839    0.5232    0.0000 H       1  UNL1        0.0660
@<TRIPOS>BOND
     1     1    14    1
     2     1    16    1
     3    12     2    1
     4     2    39    1
     5    13     3    1
     6     3    40    1
     7    15     4    1
     8     4    41    1
     9     5    18    1
    10     5    43    1
    11     6    19    1
    12     6    44    1
    13     7    22   ar
    14     7    26   ar
    15     8    20    1
    16     8    45    1
    17     9    24    2
    18    10    29    1
    19    10    31    1
    20    11    30    1
    21    11    48    1
    22    12    13    1
    23    12    14    1
    24    12    32    1
    25    13    15    1
    26    13    33    1
    27    14    17    1
    28    14    34    1
    29    15    16    1
    30    15    35    1
    31    16    18    1
    32    16    36    1
    33    17    19   ar
    34    17    20   ar
    35    18    37    1
    36    18    38    1
    37    19    21   ar
    38    20    23   ar
    39    21    22   ar
    40    21    24   ar
    41    22    23   ar
    42    23    42    1
    43    24    25   ar
    44    25    26   ar
    45    25    27   ar
    46    26    28   ar
    47    27    29   ar
    48    27    46    1
    49    28    30   ar
    50    28    47    1
    51    29    30   ar
    52    31    49    1
    53    31    50    1
    54    31    51    1
