@<TRIPOS>MOLECULE
IMPHY002970
 60 64 0 0 0
SMALL
GASTEIGER

@<TRIPOS>ATOM
      1 O           6.3194   -1.4689    0.0000 O.3     1  UNL1       -0.3741
      2 O           5.0519   -3.4236    0.0000 O.3     1  UNL1       -0.3874
      3 O           7.0625   -2.1380    0.0000 O.3     1  UNL1       -0.4658
      4 O           5.9036   -3.4252    0.0000 O.2     1  UNL1       -0.2474
      5 O           6.4218    3.0214    0.0000 O.3     1  UNL1       -0.4951
      6 N           2.6254   -1.1949    0.0000 N.3     1  UNL1       -0.2940
      7 N           5.7049   -0.1943    0.0000 N.pl3   1  UNL1       -0.3253
      8 C           4.1652   -0.6946    0.0000 C.3     1  UNL1        0.0368
      9 C           3.5397   -1.3893    0.0000 C.3     1  UNL1        0.0337
     10 C           3.8286   -2.2782    0.0000 C.3     1  UNL1        0.0342
     11 C           5.0795   -0.8890    0.0000 C.3     1  UNL1        0.0761
     12 C           5.3683   -1.7779    0.0000 C.3     1  UNL1        0.2083
     13 C           3.7801    0.3410    0.0000 C.3     1  UNL1       -0.0272
     14 C           4.7429   -2.4726    0.0000 C.3     1  UNL1        0.1066
     15 C           4.5018    0.8890    0.0000 C.ar    1  UNL1       -0.0165
     16 C           2.3366   -0.3060    0.0000 C.3     1  UNL1        0.0005
     17 C           4.1376   -3.2293    0.0000 C.3     1  UNL1       -0.0428
     18 C           5.4161    0.6946    0.0000 C.ar    1  UNL1        0.0372
     19 C           3.2031   -2.9729    0.0000 C.2     1  UNL1       -0.0765
     20 C           2.0000   -1.8896    0.0000 C.3     1  UNL1        0.0175
     21 C           2.2888   -2.7785    0.0000 C.2     1  UNL1       -0.0733
     22 C           6.1115   -2.4471    0.0000 C.2     1  UNL1        0.3435
     23 C           4.2129    1.7779    0.0000 C.ar    1  UNL1       -0.0527
     24 C           6.6560    0.1147    0.0000 C.3     1  UNL1        0.0011
     25 C           3.4685   -3.9724    0.0000 C.3     1  UNL1       -0.0644
     26 C           6.0415    1.3893    0.0000 C.ar    1  UNL1        0.0014
     27 C           4.8384    2.4726    0.0000 C.ar    1  UNL1       -0.0196
     28 C           5.7527    2.2782    0.0000 C.ar    1  UNL1        0.1219
     29 C           7.8057   -2.8072    0.0000 C.3     1  UNL1        0.0818
     30 C           6.1128    3.9724    0.0000 C.3     1  UNL1        0.0788
     31 H           3.2771   -0.5809    0.0000 H       1  UNL1        0.0481
     32 H           5.9109   -1.0657    0.0000 H       1  UNL1        0.0544
     33 H           4.3564    0.5697    0.0000 H       1  UNL1        0.0287
     34 H           3.5389    0.9121    0.0000 H       1  UNL1        0.0287
     35 H           5.3493   -2.6015    0.0000 H       1  UNL1        0.0637
     36 H           2.1034    0.2685    0.0000 H       1  UNL1        0.0427
     37 H           1.7542   -0.5185    0.0000 H       1  UNL1        0.0427
     38 H           4.5193   -3.7178    0.0000 H       1  UNL1        0.0272
     39 H           4.6850   -2.9382    0.0000 H       1  UNL1        0.0272
     40 H           3.3947   -3.5625    0.0000 H       1  UNL1        0.0576
     41 H           1.6183   -1.4010    0.0000 H       1  UNL1        0.0470
     42 H           1.4526   -2.1806    0.0000 H       1  UNL1        0.0470
     43 H           1.8740   -3.2393    0.0000 H       1  UNL1        0.0582
     44 H           3.6065    1.9068    0.0000 H       1  UNL1        0.0622
     45 H           6.7342   -1.0082    0.0000 H       1  UNL1        0.2110
     46 H           6.8476   -0.4750    0.0000 H       1  UNL1        0.0428
     47 H           7.2456    0.3063    0.0000 H       1  UNL1        0.0428
     48 H           6.4644    0.7043    0.0000 H       1  UNL1        0.0428
     49 H           4.6370   -3.8844    0.0000 H       1  UNL1        0.2100
     50 H           3.0077   -3.5576    0.0000 H       1  UNL1        0.0230
     51 H           3.0536   -4.4332    0.0000 H       1  UNL1        0.0230
     52 H           3.9292   -4.3873    0.0000 H       1  UNL1        0.0230
     53 H           6.6480    1.2604    0.0000 H       1  UNL1        0.0673
     54 H           4.6468    3.0622    0.0000 H       1  UNL1        0.0654
     55 H           7.3908   -3.2679    0.0000 H       1  UNL1        0.0661
     56 H           8.2664   -3.2220    0.0000 H       1  UNL1        0.0661
     57 H           8.2205   -2.3464    0.0000 H       1  UNL1        0.0661
     58 H           6.7025    4.1640    0.0000 H       1  UNL1        0.0660
     59 H           5.9212    4.5621    0.0000 H       1  UNL1        0.0660
     60 H           5.5232    3.7808    0.0000 H       1  UNL1        0.0660
@<TRIPOS>BOND
     1    12     1    1
     2     1    45    1
     3    14     2    1
     4     2    49    1
     5     3    22    1
     6     3    29    1
     7     4    22    2
     8     5    28    1
     9     5    30    1
    10     6     9    1
    11     6    16    1
    12     6    20    1
    13     7    11    1
    14     7    18    1
    15     7    24    1
    16     8     9    1
    17     8    11    1
    18     8    13    1
    19     8    15    1
    20     9    10    1
    21     9    31    1
    22    10    14    1
    23    10    17    1
    24    10    19    1
    25    11    12    1
    26    11    32    1
    27    12    14    1
    28    12    22    1
    29    13    16    1
    30    13    33    1
    31    13    34    1
    32    14    35    1
    33    15    18   ar
    34    15    23   ar
    35    16    36    1
    36    16    37    1
    37    17    25    1
    38    17    38    1
    39    17    39    1
    40    18    26   ar
    41    19    21    2
    42    19    40    1
    43    20    21    1
    44    20    41    1
    45    20    42    1
    46    21    43    1
    47    23    27   ar
    48    23    44    1
    49    24    46    1
    50    24    47    1
    51    24    48    1
    52    25    50    1
    53    25    51    1
    54    25    52    1
    55    26    28   ar
    56    26    53    1
    57    27    28   ar
    58    27    54    1
    59    29    55    1
    60    29    56    1
    61    29    57    1
    62    30    58    1
    63    30    59    1
    64    30    60    1
