@<TRIPOS>MOLECULE
IMPHY000304
 63 66 0 0 0
SMALL
GASTEIGER

@<TRIPOS>ATOM
      1 O          10.7870    0.6678    0.0000 O.3     1  UNL1       -0.3875
      2 O           2.8802    0.2071    0.0000 O.3     1  UNL1       -0.3902
      3 N           2.8641   -1.8845    0.0000 N.3     1  UNL1       -0.3027
      4 C           6.5251    0.1678    0.0000 C.3     1  UNL1       -0.0284
      5 C           7.3912   -0.3322    0.0000 C.3     1  UNL1       -0.0303
      6 C           8.2572    0.1678    0.0000 C.3     1  UNL1       -0.0258
      7 C           8.2572    1.1678    0.0000 C.3     1  UNL1       -0.0055
      8 C           5.6151   -0.3390    0.0000 C.3     1  UNL1       -0.0056
      9 C           6.5251    1.1678    0.0000 C.3     1  UNL1       -0.0484
     10 C           7.3912    1.6678    0.0000 C.3     1  UNL1       -0.0433
     11 C           9.2034   -0.1369    0.0000 C.3     1  UNL1       -0.0191
     12 C           7.4072   -1.3737    0.0000 C.3     1  UNL1       -0.0311
     13 C           5.6071   -1.3806    0.0000 C.2     1  UNL1       -0.0656
     14 C           9.2034    1.4725    0.0000 C.2     1  UNL1       -0.0395
     15 C           4.6883    0.2250    0.0000 C.3     1  UNL1       -0.0160
     16 C           9.7870    0.6678    0.0000 C.3     1  UNL1        0.0770
     17 C           8.2572    2.1678    0.0000 C.3     1  UNL1       -0.0555
     18 C           6.5092   -1.9015    0.0000 C.2     1  UNL1       -0.0839
     19 C           5.6228    0.6609    0.0000 C.3     1  UNL1       -0.0555
     20 C           4.6717   -1.9304    0.0000 C.3     1  UNL1       -0.0132
     21 C           3.7404   -0.3029    0.0000 C.3     1  UNL1        0.0718
     22 C           3.7320   -1.3879    0.0000 C.3     1  UNL1        0.0395
     23 C           9.5141    2.4230    0.0000 C.2     1  UNL1       -0.0849
     24 C          10.4926    2.6293    0.0000 C.3     1  UNL1       -0.0465
     25 C           2.8602   -2.8845    0.0000 C.3     1  UNL1       -0.0127
     26 C           2.0000   -1.3812    0.0000 C.3     1  UNL1       -0.0127
     27 H           7.2612    0.5928    0.0000 H       1  UNL1        0.0312
     28 H           8.1305   -0.7515    0.0000 H       1  UNL1        0.0310
     29 H           8.3471   -0.6774    0.0000 H       1  UNL1        0.0313
     30 H           6.3131    1.7504    0.0000 H       1  UNL1        0.0269
     31 H           5.9145    1.0601    0.0000 H       1  UNL1        0.0269
     32 H           7.7897    2.1428    0.0000 H       1  UNL1        0.0274
     33 H           6.9926    2.1428    0.0000 H       1  UNL1        0.0274
     34 H           8.9524   -0.7038    0.0000 H       1  UNL1        0.0296
     35 H           9.7408   -0.4462    0.0000 H       1  UNL1        0.0296
     36 H           7.6252   -1.9541    0.0000 H       1  UNL1        0.0310
     37 H           8.0164   -1.2582    0.0000 H       1  UNL1        0.0310
     38 H           5.0965    0.6917    0.0000 H       1  UNL1        0.0299
     39 H           4.2984    0.7071    0.0000 H       1  UNL1        0.0299
     40 H          10.0687    0.1155    0.0000 H       1  UNL1        0.0640
     41 H           8.8772    2.1678    0.0000 H       1  UNL1        0.0238
     42 H           8.2572    2.7878    0.0000 H       1  UNL1        0.0238
     43 H           7.6372    2.1678    0.0000 H       1  UNL1        0.0238
     44 H           6.5116   -2.5215    0.0000 H       1  UNL1        0.0572
     45 H           6.2428    0.6561    0.0000 H       1  UNL1        0.0238
     46 H           5.6276    1.2809    0.0000 H       1  UNL1        0.0238
     47 H           5.0028    0.6657    0.0000 H       1  UNL1        0.0238
     48 H           4.2744   -2.4063    0.0000 H       1  UNL1        0.0326
     49 H           5.0726   -2.4033    0.0000 H       1  UNL1        0.0326
     50 H           3.2005   -0.6077    0.0000 H       1  UNL1        0.0609
     51 H           3.7308   -2.0079    0.0000 H       1  UNL1        0.0491
     52 H           9.1000    2.8845    0.0000 H       1  UNL1        0.0570
     53 H          11.0970    0.1309    0.0000 H       1  UNL1        0.2102
     54 H           2.8874    0.8270    0.0000 H       1  UNL1        0.2098
     55 H          10.6204    2.0226    0.0000 H       1  UNL1        0.0272
     56 H          11.0992    2.7571    0.0000 H       1  UNL1        0.0272
     57 H          10.3647    3.2360    0.0000 H       1  UNL1        0.0272
     58 H           2.2402   -2.8821    0.0000 H       1  UNL1        0.0391
     59 H           2.8578   -3.5045    0.0000 H       1  UNL1        0.0391
     60 H           3.4802   -2.8869    0.0000 H       1  UNL1        0.0391
     61 H           2.3121   -0.8455    0.0000 H       1  UNL1        0.0391
     62 H           1.4643   -1.0691    0.0000 H       1  UNL1        0.0391
     63 H           1.6879   -1.9169    0.0000 H       1  UNL1        0.0391
@<TRIPOS>BOND
     1    16     1    1
     2     1    53    1
     3    21     2    1
     4     2    54    1
     5    22     3    1
     6     3    25    1
     7     3    26    1
     8     4     5    1
     9     4     8    1
    10     4     9    1
    11     4    27    1
    12     5     6    1
    13     5    12    1
    14     5    28    1
    15     6     7    1
    16     6    11    1
    17     6    29    1
    18     7    10    1
    19     7    14    1
    20     7    17    1
    21     8    13    1
    22     8    15    1
    23     8    19    1
    24     9    10    1
    25     9    30    1
    26     9    31    1
    27    10    32    1
    28    10    33    1
    29    11    16    1
    30    11    34    1
    31    11    35    1
    32    12    18    1
    33    12    36    1
    34    12    37    1
    35    13    18    2
    36    13    20    1
    37    14    16    1
    38    14    23    2
    39    15    21    1
    40    15    38    1
    41    15    39    1
    42    16    40    1
    43    17    41    1
    44    17    42    1
    45    17    43    1
    46    18    44    1
    47    19    45    1
    48    19    46    1
    49    19    47    1
    50    20    22    1
    51    20    48    1
    52    20    49    1
    53    21    22    1
    54    21    50    1
    55    22    51    1
    56    23    24    1
    57    23    52    1
    58    24    55    1
    59    24    56    1
    60    24    57    1
    61    25    58    1
    62    25    59    1
    63    25    60    1
    64    26    61    1
    65    26    62    1
    66    26    63    1
