@<TRIPOS>MOLECULE
IMPHY014926
 80 84 0 0 0
SMALL
GASTEIGER

@<TRIPOS>ATOM
      1 O           2.5357   -3.0234    0.0000 O.3     1  UNL1       -0.3912
      2 O           5.3307    0.5289    0.0000 O.2     1  UNL1       -0.2923
      3 O          11.2187    3.0886    0.0000 O.3     1  UNL1       -0.4802
      4 O           9.7088    3.9372    0.0000 O.2     1  UNL1       -0.2504
      5 C           7.0628   -1.4710    0.0000 C.3     1  UNL1       -0.0127
      6 C           5.2868   -1.4779    0.0000 C.3     1  UNL1       -0.0182
      7 C           6.1968   -0.9711    0.0000 C.3     1  UNL1        0.0333
      8 C           7.9288   -0.9711    0.0000 C.3     1  UNL1       -0.0043
      9 C           5.2787   -2.5195    0.0000 C.3     1  UNL1       -0.0274
     10 C           7.0789   -2.5126    0.0000 C.3     1  UNL1       -0.0459
     11 C           7.9288    0.0289    0.0000 C.2     1  UNL1       -0.0562
     12 C           6.1808   -3.0403    0.0000 C.3     1  UNL1       -0.0486
     13 C           4.3433   -3.0692    0.0000 C.3     1  UNL1       -0.0056
     14 C           8.8228    0.5636    0.0000 C.3     1  UNL1       -0.0126
     15 C           9.7288    0.0498    0.0000 C.3     1  UNL1       -0.0254
     16 C           8.8228   -1.5057    0.0000 C.3     1  UNL1       -0.0429
     17 C           4.3599   -0.9138    0.0000 C.3     1  UNL1       -0.0443
     18 C           9.7288   -0.9919    0.0000 C.3     1  UNL1       -0.0463
     19 C           6.1968    0.0289    0.0000 C.2     1  UNL1        0.1602
     20 C           7.7056   -2.2371    0.0000 C.3     1  UNL1       -0.0581
     21 C           3.4037   -2.5267    0.0000 C.3     1  UNL1        0.0606
     22 C           5.2945   -0.4779    0.0000 C.3     1  UNL1       -0.0586
     23 C           3.4120   -1.4418    0.0000 C.3     1  UNL1       -0.0258
     24 C           8.2709   -1.9107    0.0000 C.3     1  UNL1       -0.0553
     25 C           8.7977    1.6483    0.0000 C.3     1  UNL1       -0.0304
     26 C           7.0628    0.5289    0.0000 C.2     1  UNL1       -0.0188
     27 C          10.6726    0.5850    0.0000 C.3     1  UNL1       -0.0461
     28 C           9.7288    2.2052    0.0000 C.3     1  UNL1        0.0654
     29 C          10.6726    1.6700    0.0000 C.3     1  UNL1       -0.0370
     30 C           3.8467   -3.9372    0.0000 C.3     1  UNL1       -0.0572
     31 C           4.8466   -3.9333    0.0000 C.3     1  UNL1       -0.0572
     32 C          10.5987   -0.4435    0.0000 C.3     1  UNL1       -0.0590
     33 C           9.2188    3.0654    0.0000 C.3     1  UNL1       -0.0494
     34 C          10.2188    3.0770    0.0000 C.2     1  UNL1        0.3107
     35 H           6.9329   -0.5461    0.0000 H       1  UNL1        0.0392
     36 H           5.2820   -3.3695    0.0000 H       1  UNL1        0.0312
     37 H           7.2969   -3.0930    0.0000 H       1  UNL1        0.0271
     38 H           7.6880   -2.3971    0.0000 H       1  UNL1        0.0271
     39 H           5.7835   -3.5163    0.0000 H       1  UNL1        0.0268
     40 H           6.5818   -3.5132    0.0000 H       1  UNL1        0.0268
     41 H           9.5522    0.9999    0.0000 H       1  UNL1        0.0351
     42 H           8.4182   -1.9755    0.0000 H       1  UNL1        0.0274
     43 H           9.2164   -1.9847    0.0000 H       1  UNL1        0.0274
     44 H           4.7681   -0.4472    0.0000 H       1  UNL1        0.0272
     45 H           3.9700   -0.4318    0.0000 H       1  UNL1        0.0272
     46 H           9.9379   -1.5756    0.0000 H       1  UNL1        0.0271
     47 H          10.3397   -0.8858    0.0000 H       1  UNL1        0.0271
     48 H           7.2306   -2.6356    0.0000 H       1  UNL1        0.0236
     49 H           8.1041   -2.7120    0.0000 H       1  UNL1        0.0236
     50 H           8.1805   -1.8386    0.0000 H       1  UNL1        0.0236
     51 H           3.4025   -3.1467    0.0000 H       1  UNL1        0.0599
     52 H           5.9145   -0.4827    0.0000 H       1  UNL1        0.0235
     53 H           5.2993    0.1421    0.0000 H       1  UNL1        0.0235
     54 H           4.6745   -0.4731    0.0000 H       1  UNL1        0.0235
     55 H           3.2075   -0.8565    0.0000 H       1  UNL1        0.0290
     56 H           2.8004   -1.5431    0.0000 H       1  UNL1        0.0290
     57 H           7.6884   -2.1228    0.0000 H       1  UNL1        0.0238
     58 H           8.4830   -2.4933    0.0000 H       1  UNL1        0.0238
     59 H           8.8535   -1.6986    0.0000 H       1  UNL1        0.0238
     60 H           8.5752    2.2270    0.0000 H       1  UNL1        0.0282
     61 H           8.1894    1.5281    0.0000 H       1  UNL1        0.0282
     62 H           7.0628    1.1490    0.0000 H       1  UNL1        0.0652
     63 H          10.8817    0.0013    0.0000 H       1  UNL1        0.0271
     64 H          11.2835    0.6911    0.0000 H       1  UNL1        0.0271
     65 H          11.2835    1.5639    0.0000 H       1  UNL1        0.0276
     66 H          10.8817    2.2537    0.0000 H       1  UNL1        0.0276
     67 H           3.3085   -3.6292    0.0000 H       1  UNL1        0.0236
     68 H           3.5387   -4.4753    0.0000 H       1  UNL1        0.0236
     69 H           4.3848   -4.2451    0.0000 H       1  UNL1        0.0236
     70 H           4.3109   -4.2454    0.0000 H       1  UNL1        0.0236
     71 H           5.1587   -4.4690    0.0000 H       1  UNL1        0.0236
     72 H           5.3824   -3.6212    0.0000 H       1  UNL1        0.0236
     73 H          10.2928   -0.9829    0.0000 H       1  UNL1        0.0235
     74 H          11.1380   -0.7494    0.0000 H       1  UNL1        0.0235
     75 H          10.9045    0.0958    0.0000 H       1  UNL1        0.0235
     76 H           9.7522    3.3816    0.0000 H       1  UNL1        0.0240
     77 H           8.9027    3.5987    0.0000 H       1  UNL1        0.0240
     78 H           8.6855    2.7492    0.0000 H       1  UNL1        0.0240
     79 H           2.0000   -2.7113    0.0000 H       1  UNL1        0.2098
     80 H          11.5225    3.6290    0.0000 H       1  UNL1        0.2951
@<TRIPOS>BOND
     1    21     1    1
     2     1    79    1
     3     2    19    2
     4     3    34    1
     5     3    80    1
     6     4    34    2
     7     5     7    1
     8     5     8    1
     9     5    10    1
    10     5    20    1
    11     6     7    1
    12     6     9    1
    13     6    17    1
    14     6    22    1
    15     7    19    1
    16     7    35    1
    17     8    11    1
    18     8    16    1
    19     8    24    1
    20     9    12    1
    21     9    13    1
    22     9    36    1
    23    10    12    1
    24    10    37    1
    25    10    38    1
    26    11    14    1
    27    11    26    2
    28    12    39    1
    29    12    40    1
    30    13    21    1
    31    13    30    1
    32    13    31    1
    33    14    15    1
    34    14    25    1
    35    14    41    1
    36    15    18    1
    37    15    27    1
    38    15    32    1
    39    16    18    1
    40    16    42    1
    41    16    43    1
    42    17    23    1
    43    17    44    1
    44    17    45    1
    45    18    46    1
    46    18    47    1
    47    19    26    1
    48    20    48    1
    49    20    49    1
    50    20    50    1
    51    21    23    1
    52    21    51    1
    53    22    52    1
    54    22    53    1
    55    22    54    1
    56    23    55    1
    57    23    56    1
    58    24    57    1
    59    24    58    1
    60    24    59    1
    61    25    28    1
    62    25    60    1
    63    25    61    1
    64    26    62    1
    65    27    29    1
    66    27    63    1
    67    27    64    1
    68    28    29    1
    69    28    33    1
    70    28    34    1
    71    29    65    1
    72    29    66    1
    73    30    67    1
    74    30    68    1
    75    30    69    1
    76    31    70    1
    77    31    71    1
    78    31    72    1
    79    32    73    1
    80    32    74    1
    81    32    75    1
    82    33    76    1
    83    33    77    1
    84    33    78    1
