@<TRIPOS>MOLECULE
IMPHY013542
 74 78 0 0 0
SMALL
GASTEIGER

@<TRIPOS>ATOM
      1 O           6.0258   -0.5406    0.0000 O.3     1  UNL1       -0.3313
      2 O           4.2559    0.5037    0.0000 O.3     1  UNL1       -0.3339
      3 O           7.7578   -0.5406    0.0000 O.3     1  UNL1       -0.4534
      4 O           5.9879    0.4904    0.0000 O.3     1  UNL1       -0.4569
      5 O           6.0258   -3.5406    0.0000 O.3     1  UNL1       -0.3864
      6 O           4.2937   -2.5406    0.0000 O.3     1  UNL1       -0.3865
      7 O           7.7578   -2.5406    0.0000 O.3     1  UNL1       -0.3829
      8 O           4.2790    3.5036    0.0000 O.3     1  UNL1       -0.3864
      9 O           2.5393    2.5170    0.0000 O.3     1  UNL1       -0.3866
     10 O           6.0033    2.4903    0.0000 O.3     1  UNL1       -0.3829
     11 O           3.4277   -1.0406    0.0000 O.3     1  UNL1       -0.3924
     12 O           9.5181    0.4737    0.0000 O.2     1  UNL1       -0.4470
     13 O           7.8049    3.5283    0.0000 O.3     1  UNL1       -0.5058
     14 O           9.5528    3.4735    0.0000 O.2     1  UNL1       -0.2830
     15 O          11.2731    2.4535    0.0000 O.3     1  UNL1       -0.5007
     16 O          12.0871   -2.0562    0.0000 O.3     1  UNL1       -0.5033
     17 O          13.8306   -1.0763    0.0000 O.3     1  UNL1       -0.5033
     18 C           6.0258   -2.5406    0.0000 C.3     1  UNL1        0.1152
     19 C           5.1597   -2.0406    0.0000 C.3     1  UNL1        0.1120
     20 C           6.8918   -2.0406    0.0000 C.3     1  UNL1        0.1454
     21 C           5.1597   -1.0406    0.0000 C.3     1  UNL1        0.1140
     22 C           4.2713    2.5036    0.0000 C.3     1  UNL1        0.1151
     23 C           3.4014    2.0103    0.0000 C.3     1  UNL1        0.1096
     24 C           6.8918   -1.0406    0.0000 C.3     1  UNL1        0.2311
     25 C           5.1334    1.9970    0.0000 C.3     1  UNL1        0.1454
     26 C           3.3938    1.0104    0.0000 C.3     1  UNL1        0.0883
     27 C           5.1258    0.9970    0.0000 C.3     1  UNL1        0.2309
     28 C           4.2937   -0.5406    0.0000 C.3     1  UNL1        0.0731
     29 C           2.5239    0.5171    0.0000 C.3     1  UNL1       -0.0360
     30 C           7.7578    0.4594    0.0000 C.ar    1  UNL1        0.2084
     31 C           6.8577    0.9837    0.0000 C.ar    1  UNL1        0.1727
     32 C           8.6579    0.9837    0.0000 C.ar    1  UNL1        0.1882
     33 C           6.8698    2.0252    0.0000 C.ar    1  UNL1        0.0263
     34 C           8.6694    1.9836    0.0000 C.ar    1  UNL1        0.1128
     35 C           7.7817    2.5286    0.0000 C.ar    1  UNL1        0.1350
     36 C           9.5412    2.4736    0.0000 C.ar    1  UNL1        0.2380
     37 C          10.3898    0.9636    0.0000 C.ar    1  UNL1        0.1809
     38 C          10.4014    1.9636    0.0000 C.ar    1  UNL1        0.2082
     39 C          11.2500    0.4537    0.0000 C.ar    1  UNL1        0.0247
     40 C          11.2384   -0.5463    0.0000 C.ar    1  UNL1       -0.0057
     41 C          12.1217    0.9436    0.0000 C.ar    1  UNL1       -0.0473
     42 C          12.0986   -1.0563    0.0000 C.ar    1  UNL1        0.1589
     43 C          12.9819    0.4336    0.0000 C.ar    1  UNL1       -0.0159
     44 C          12.9704   -0.5663    0.0000 C.ar    1  UNL1        0.1583
     45 H           5.4888   -2.8506    0.0000 H       1  UNL1        0.0648
     46 H           5.1597   -2.6606    0.0000 H       1  UNL1        0.0647
     47 H           6.8918   -2.6606    0.0000 H       1  UNL1        0.0683
     48 H           5.1597   -0.4206    0.0000 H       1  UNL1        0.0647
     49 H           4.8106    2.8095    0.0000 H       1  UNL1        0.0648
     50 H           3.4062    2.6303    0.0000 H       1  UNL1        0.0646
     51 H           7.4287   -1.3506    0.0000 H       1  UNL1        0.1084
     52 H           5.1382    2.6170    0.0000 H       1  UNL1        0.0683
     53 H           3.3890    0.3904    0.0000 H       1  UNL1        0.0621
     54 H           5.6650    1.3029    0.0000 H       1  UNL1        0.1084
     55 H           4.6922   -0.0657    0.0000 H       1  UNL1        0.0584
     56 H           3.8952   -0.0657    0.0000 H       1  UNL1        0.0584
     57 H           2.2180    1.0564    0.0000 H       1  UNL1        0.0255
     58 H           1.9846    0.2112    0.0000 H       1  UNL1        0.0255
     59 H           2.8297   -0.0223    0.0000 H       1  UNL1        0.0255
     60 H           5.4888   -3.8506    0.0000 H       1  UNL1        0.2100
     61 H           4.2937   -3.1606    0.0000 H       1  UNL1        0.2100
     62 H           7.7578   -3.1606    0.0000 H       1  UNL1        0.2102
     63 H           3.7445    3.8178    0.0000 H       1  UNL1        0.2100
     64 H           2.0000    2.2112    0.0000 H       1  UNL1        0.2100
     65 H           6.0081    3.1103    0.0000 H       1  UNL1        0.2102
     66 H           6.3377    2.3435    0.0000 H       1  UNL1        0.0692
     67 H           2.8908   -0.7306    0.0000 H       1  UNL1        0.2095
     68 H           7.2752    3.8506    0.0000 H       1  UNL1        0.2922
     69 H          10.6979   -0.8500    0.0000 H       1  UNL1        0.0662
     70 H          12.1289    1.5636    0.0000 H       1  UNL1        0.0626
     71 H          11.2803    3.0735    0.0000 H       1  UNL1        0.2924
     72 H          13.5224    0.7374    0.0000 H       1  UNL1        0.0655
     73 H          12.6204   -2.3724    0.0000 H       1  UNL1        0.2923
     74 H          14.3710   -0.7725    0.0000 H       1  UNL1        0.2923
@<TRIPOS>BOND
     1     1    21    1
     2     1    24    1
     3     2    26    1
     4     2    27    1
     5    24     3    1
     6     3    30    1
     7    27     4    1
     8     4    31    1
     9    18     5    1
    10     5    60    1
    11    19     6    1
    12     6    61    1
    13    20     7    1
    14     7    62    1
    15    22     8    1
    16     8    63    1
    17    23     9    1
    18     9    64    1
    19    25    10    1
    20    10    65    1
    21    11    28    1
    22    11    67    1
    23    12    32   ar
    24    12    37   ar
    25    13    35    1
    26    13    68    1
    27    14    36    2
    28    15    38    1
    29    15    71    1
    30    16    42    1
    31    16    73    1
    32    17    44    1
    33    17    74    1
    34    18    19    1
    35    18    20    1
    36    18    45    1
    37    19    21    1
    38    19    46    1
    39    20    24    1
    40    20    47    1
    41    21    28    1
    42    21    48    1
    43    22    23    1
    44    22    25    1
    45    22    49    1
    46    23    26    1
    47    23    50    1
    48    24    51    1
    49    25    27    1
    50    25    52    1
    51    26    29    1
    52    26    53    1
    53    27    54    1
    54    28    55    1
    55    28    56    1
    56    29    57    1
    57    29    58    1
    58    29    59    1
    59    30    31   ar
    60    30    32   ar
    61    31    33   ar
    62    32    34   ar
    63    33    35   ar
    64    33    66    1
    65    34    35   ar
    66    34    36   ar
    67    36    38   ar
    68    37    38   ar
    69    37    39    1
    70    39    40   ar
    71    39    41   ar
    72    40    42   ar
    73    40    69    1
    74    41    43   ar
    75    41    70    1
    76    42    44   ar
    77    43    44   ar
    78    43    72    1
