@<TRIPOS>MOLECULE
IMPHY011557
 25 25 0 0 0
SMALL
GASTEIGER

@<TRIPOS>ATOM
      1 O           2.0000   -2.1900    0.0000 O.3     1  UNL1       -0.3904
      2 C           2.8660    2.3100    0.0000 C.3     1  UNL1       -0.0215
      3 C           2.8660    1.3100    0.0000 C.ar    1  UNL1       -0.0448
      4 C           3.7320    2.8100    0.0000 C.3     1  UNL1       -0.0587
      5 C           2.0000    2.8100    0.0000 C.3     1  UNL1       -0.0587
      6 C           2.0000    0.8100    0.0000 C.ar    1  UNL1       -0.0580
      7 C           3.7320    0.8100    0.0000 C.ar    1  UNL1       -0.0580
      8 C           2.8660   -0.6900    0.0000 C.ar    1  UNL1       -0.0222
      9 C           2.0000   -0.1900    0.0000 C.ar    1  UNL1       -0.0561
     10 C           3.7320   -0.1900    0.0000 C.ar    1  UNL1       -0.0561
     11 C           2.8660   -1.6900    0.0000 C.3     1  UNL1        0.0692
     12 H           2.8660    2.9300    0.0000 H       1  UNL1        0.0343
     13 H           4.0420    2.2731    0.0000 H       1  UNL1        0.0235
     14 H           4.2690    3.1200    0.0000 H       1  UNL1        0.0235
     15 H           2.3100    3.3469    0.0000 H       1  UNL1        0.0235
     16 H           1.4631    3.1200    0.0000 H       1  UNL1        0.0235
     17 H           1.6900    2.2731    0.0000 H       1  UNL1        0.0235
     18 H           3.4220    3.3469    0.0000 H       1  UNL1        0.0235
     19 H           1.4631    1.1200    0.0000 H       1  UNL1        0.0620
     20 H           4.2690    1.1200    0.0000 H       1  UNL1        0.0620
     21 H           1.4631   -0.5000    0.0000 H       1  UNL1        0.0621
     22 H           4.2690   -0.5000    0.0000 H       1  UNL1        0.0621
     23 H           3.0781   -2.2726    0.0000 H       1  UNL1        0.0607
     24 H           3.4766   -1.5823    0.0000 H       1  UNL1        0.0607
     25 H           2.0000   -2.8100    0.0000 H       1  UNL1        0.2098
@<TRIPOS>BOND
     1     1    11    1
     2     1    25    1
     3     2     3    1
     4     2     4    1
     5     2     5    1
     6     2    12    1
     7     3     6   ar
     8     3     7   ar
     9     4    13    1
    10     4    14    1
    11     4    18    1
    12     5    15    1
    13     5    16    1
    14     5    17    1
    15     6     9   ar
    16     6    19    1
    17     7    10   ar
    18     7    20    1
    19     8     9   ar
    20     8    10   ar
    21     8    11    1
    22     9    21    1
    23    10    22    1
    24    11    23    1
    25    11    24    1
