@<TRIPOS>MOLECULE
IMPHY002641
 34 37 0 0 0
SMALL
GASTEIGER

@<TRIPOS>ATOM
      1 O           2.0123   -0.5000    0.0000 O.3     1  UNL1       -0.4865
      2 O           2.0074    2.4853    0.0000 O.3     1  UNL1       -0.4910
      3 O           3.7095    3.4990    0.0000 O.3     1  UNL1       -0.5033
      4 O           3.7095   -3.4990    0.0000 O.3     1  UNL1       -0.5066
      5 C           3.7444    0.5000    0.0000 C.ar    1  UNL1       -0.0008
      6 C           3.7444   -0.5000    0.0000 C.ar    1  UNL1        0.0280
      7 C           4.6383    1.0347    0.0000 C.ar    1  UNL1       -0.0352
      8 C           5.5444    0.5208    0.0000 C.3     1  UNL1       -0.0230
      9 C           5.5444   -0.5208    0.0000 C.3     1  UNL1       -0.0229
     10 C           4.6383   -1.0347    0.0000 C.ar    1  UNL1       -0.0324
     11 C           2.8784    1.0000    0.0000 C.ar    1  UNL1        0.0429
     12 C           2.8784   -1.0000    0.0000 C.ar    1  UNL1        0.1324
     13 C           2.0123    0.5000    0.0000 C.3     1  UNL1        0.1187
     14 C           4.6005    2.0256    0.0000 C.ar    1  UNL1       -0.0127
     15 C           2.8771    1.9917    0.0000 C.ar    1  UNL1        0.1682
     16 C           4.6005   -2.0256    0.0000 C.ar    1  UNL1       -0.0162
     17 C           3.7292    2.4991    0.0000 C.ar    1  UNL1        0.1591
     18 C           2.8771   -1.9917    0.0000 C.ar    1  UNL1        0.0222
     19 C           3.7292   -2.4991    0.0000 C.ar    1  UNL1        0.1206
     20 C           2.0000    3.4852    0.0000 C.3     1  UNL1        0.0790
     21 H           6.1552    0.4147    0.0000 H       1  UNL1        0.0317
     22 H           5.7534    1.1045    0.0000 H       1  UNL1        0.0317
     23 H           5.7534   -1.1045    0.0000 H       1  UNL1        0.0317
     24 H           6.1552   -0.4147    0.0000 H       1  UNL1        0.0317
     25 H           1.8003    1.0826    0.0000 H       1  UNL1        0.0749
     26 H           1.4017    0.3923    0.0000 H       1  UNL1        0.0749
     27 H           5.1273    2.3527    0.0000 H       1  UNL1        0.0658
     28 H           5.1273   -2.3527    0.0000 H       1  UNL1        0.0657
     29 H           2.3379   -2.2977    0.0000 H       1  UNL1        0.0691
     30 H           4.2402    3.8195    0.0000 H       1  UNL1        0.2923
     31 H           4.2402   -3.8195    0.0000 H       1  UNL1        0.2921
     32 H           2.6200    3.4898    0.0000 H       1  UNL1        0.0660
     33 H           1.9954    4.1052    0.0000 H       1  UNL1        0.0660
     34 H           1.3800    3.4807    0.0000 H       1  UNL1        0.0660
@<TRIPOS>BOND
     1     1    12    1
     2     1    13    1
     3     2    15    1
     4     2    20    1
     5     3    17    1
     6     3    30    1
     7     4    19    1
     8     4    31    1
     9     5     6    1
    10     5     7   ar
    11     5    11   ar
    12     6    10   ar
    13     6    12   ar
    14     7     8    1
    15     7    14   ar
    16     8     9    1
    17     8    21    1
    18     8    22    1
    19     9    10    1
    20     9    23    1
    21     9    24    1
    22    10    16   ar
    23    11    13    1
    24    11    15   ar
    25    12    18   ar
    26    13    25    1
    27    13    26    1
    28    14    17   ar
    29    14    27    1
    30    15    17   ar
    31    16    19   ar
    32    16    28    1
    33    18    19   ar
    34    18    29    1
    35    20    32    1
    36    20    33    1
    37    20    34    1
