@<TRIPOS>MOLECULE
IMPHY014203
 25 25 0 0 0
SMALL
GASTEIGER

@<TRIPOS>ATOM
      1 O           2.0000    1.3450    0.0000 O.3     1  UNL1       -0.3845
      2 O           4.5981    0.8450    0.0000 O.3     1  UNL1       -0.3866
      3 O           4.5981    2.8450    0.0000 O.3     1  UNL1       -0.3924
      4 O           2.8660   -3.1550    0.0000 O.3     1  UNL1       -0.5068
      5 C           2.8660    0.8450    0.0000 C.3     1  UNL1        0.1081
      6 C           3.7320    1.3450    0.0000 C.3     1  UNL1        0.1081
      7 C           2.8660   -0.1550    0.0000 C.ar    1  UNL1       -0.0164
      8 C           3.7320    2.3450    0.0000 C.3     1  UNL1        0.0729
      9 C           3.7320   -0.6550    0.0000 C.ar    1  UNL1       -0.0526
     10 C           2.0000   -0.6550    0.0000 C.ar    1  UNL1       -0.0526
     11 C           3.7320   -1.6550    0.0000 C.ar    1  UNL1       -0.0198
     12 C           2.0000   -1.6550    0.0000 C.ar    1  UNL1       -0.0198
     13 C           2.8660   -2.1550    0.0000 C.ar    1  UNL1        0.1169
     14 H           2.8660    1.4650    0.0000 H       1  UNL1        0.0670
     15 H           3.7320    0.7250    0.0000 H       1  UNL1        0.0646
     16 H           3.5200    2.9276    0.0000 H       1  UNL1        0.0584
     17 H           3.1215    2.2373    0.0000 H       1  UNL1        0.0584
     18 H           4.2690   -0.3450    0.0000 H       1  UNL1        0.0622
     19 H           1.4631   -0.3450    0.0000 H       1  UNL1        0.0622
     20 H           2.0000    1.9650    0.0000 H       1  UNL1        0.2103
     21 H           4.2690   -1.9650    0.0000 H       1  UNL1        0.0654
     22 H           1.4631   -1.9650    0.0000 H       1  UNL1        0.0654
     23 H           5.1350    1.1550    0.0000 H       1  UNL1        0.2100
     24 H           4.5981    3.4650    0.0000 H       1  UNL1        0.2095
     25 H           2.3291   -3.4650    0.0000 H       1  UNL1        0.2921
@<TRIPOS>BOND
     1     1     5    1
     2     1    20    1
     3     2     6    1
     4     2    23    1
     5     3     8    1
     6     3    24    1
     7     4    13    1
     8     4    25    1
     9     5     6    1
    10     5     7    1
    11     5    14    1
    12     6     8    1
    13     6    15    1
    14     7     9   ar
    15     7    10   ar
    16     8    16    1
    17     8    17    1
    18     9    11   ar
    19     9    18    1
    20    10    12   ar
    21    10    19    1
    22    11    13   ar
    23    11    21    1
    24    12    13   ar
    25    12    22    1
