@<TRIPOS>MOLECULE
IMPHY011586
 39 39 0 0 0
SMALL
GASTEIGER

@<TRIPOS>ATOM
      1 C           5.1350    0.4400    0.0000 C.3     1  UNL1       -0.0200
      2 C           6.0010   -0.0600    0.0000 C.3     1  UNL1       -0.0404
      3 C           4.2690   -0.0600    0.0000 C.3     1  UNL1       -0.0428
      4 C           4.2690   -1.0600    0.0000 C.3     1  UNL1       -0.0315
      5 C           5.1350    1.4400    0.0000 C.2     1  UNL1       -0.0804
      6 C           6.8671    0.4400    0.0000 C.3     1  UNL1       -0.0621
      7 C           6.0010   -1.0600    0.0000 C.3     1  UNL1       -0.0621
      8 C           3.4030   -1.5600    0.0000 C.2     1  UNL1       -0.0765
      9 C           4.2690    1.9400    0.0000 C.2     1  UNL1       -0.0628
     10 C           2.5369   -0.0600    0.0000 C.3     1  UNL1       -0.0305
     11 C           2.5369   -1.0600    0.0000 C.2     1  UNL1       -0.0847
     12 C           3.4030    0.4400    0.0000 C.3     1  UNL1       -0.0248
     13 C           3.4030    1.4400    0.0000 C.2     1  UNL1       -0.0544
     14 C           3.4030   -2.5600    0.0000 C.3     1  UNL1       -0.0438
     15 C           2.5369    1.9400    0.0000 C.2     1  UNL1       -0.0955
     16 H           5.1350   -0.1800    0.0000 H       1  UNL1        0.0346
     17 H           6.5380   -0.3700    0.0000 H       1  UNL1        0.0301
     18 H           4.0569    0.5226    0.0000 H       1  UNL1        0.0274
     19 H           3.6584   -0.1677    0.0000 H       1  UNL1        0.0274
     20 H           4.4810   -1.6426    0.0000 H       1  UNL1        0.0310
     21 H           4.8796   -0.9523    0.0000 H       1  UNL1        0.0310
     22 H           5.6720    1.7500    0.0000 H       1  UNL1        0.0575
     23 H           7.1771   -0.0969    0.0000 H       1  UNL1        0.0233
     24 H           7.4040    0.7500    0.0000 H       1  UNL1        0.0233
     25 H           6.5571    0.9769    0.0000 H       1  UNL1        0.0233
     26 H           5.3810   -1.0600    0.0000 H       1  UNL1        0.0233
     27 H           6.0010   -1.6800    0.0000 H       1  UNL1        0.0233
     28 H           6.6210   -1.0600    0.0000 H       1  UNL1        0.0233
     29 H           4.2690    2.5600    0.0000 H       1  UNL1        0.0617
     30 H           2.3249    0.5226    0.0000 H       1  UNL1        0.0311
     31 H           1.9264   -0.1677    0.0000 H       1  UNL1        0.0311
     32 H           2.0000   -1.3700    0.0000 H       1  UNL1        0.0572
     33 H           3.6150   -0.1426    0.0000 H       1  UNL1        0.0316
     34 H           4.0135    0.5477    0.0000 H       1  UNL1        0.0316
     35 H           2.7830   -2.5600    0.0000 H       1  UNL1        0.0274
     36 H           3.4030   -3.1800    0.0000 H       1  UNL1        0.0274
     37 H           4.0230   -2.5600    0.0000 H       1  UNL1        0.0274
     38 H           2.5369    2.5600    0.0000 H       1  UNL1        0.0537
     39 H           2.0000    1.6300    0.0000 H       1  UNL1        0.0537
@<TRIPOS>BOND
     1     1     2    1
     2     1     3    1
     3     1     5    1
     4     1    16    1
     5     2     6    1
     6     2     7    1
     7     2    17    1
     8     3     4    1
     9     3    18    1
    10     3    19    1
    11     4     8    1
    12     4    20    1
    13     4    21    1
    14     5     9    2
    15     5    22    1
    16     6    23    1
    17     6    24    1
    18     6    25    1
    19     7    26    1
    20     7    27    1
    21     7    28    1
    22     8    11    2
    23     8    14    1
    24     9    13    1
    25     9    29    1
    26    10    11    1
    27    10    12    1
    28    10    30    1
    29    10    31    1
    30    11    32    1
    31    12    13    1
    32    12    33    1
    33    12    34    1
    34    13    15    2
    35    14    35    1
    36    14    36    1
    37    14    37    1
    38    15    38    1
    39    15    39    1
