@<TRIPOS>MOLECULE
IMPHY017448
 69 68 0 0 0
SMALL
GASTEIGER

@<TRIPOS>ATOM
      1 O           6.3301   -0.5950    0.0000 O.3     1  UNL1       -0.3918
      2 C           9.7942    0.4050    0.0000 C.3     1  UNL1       -0.0531
      3 C          10.6603    0.9050    0.0000 C.3     1  UNL1       -0.0531
      4 C           8.9282    0.9050    0.0000 C.3     1  UNL1       -0.0530
      5 C          11.5263    0.4050    0.0000 C.3     1  UNL1       -0.0531
      6 C           8.0622    0.4050    0.0000 C.3     1  UNL1       -0.0507
      7 C          12.3923    0.9050    0.0000 C.3     1  UNL1       -0.0531
      8 C           7.1962    0.9050    0.0000 C.3     1  UNL1       -0.0269
      9 C          13.2583    0.4050    0.0000 C.3     1  UNL1       -0.0531
     10 C           6.3301    0.4050    0.0000 C.3     1  UNL1        0.0553
     11 C          14.1244    0.9050    0.0000 C.3     1  UNL1       -0.0531
     12 C          14.9904    0.4050    0.0000 C.3     1  UNL1       -0.0531
     13 C           5.4641    0.9050    0.0000 C.3     1  UNL1       -0.0269
     14 C          15.8564    0.9050    0.0000 C.3     1  UNL1       -0.0531
     15 C          16.7224    0.4050    0.0000 C.3     1  UNL1       -0.0531
     16 C           4.5981    0.4050    0.0000 C.3     1  UNL1       -0.0507
     17 C          17.5885    0.9050    0.0000 C.3     1  UNL1       -0.0531
     18 C           3.7320    0.9050    0.0000 C.3     1  UNL1       -0.0532
     19 C          18.4545    0.4050    0.0000 C.3     1  UNL1       -0.0533
     20 C           2.8660    0.4050    0.0000 C.3     1  UNL1       -0.0559
     21 C          19.3205    0.9050    0.0000 C.3     1  UNL1       -0.0559
     22 C           2.0000    0.9050    0.0000 C.3     1  UNL1       -0.0653
     23 C          20.1865    0.4050    0.0000 C.3     1  UNL1       -0.0653
     24 H           9.3957   -0.0699    0.0000 H       1  UNL1        0.0265
     25 H          10.1928   -0.0699    0.0000 H       1  UNL1        0.0265
     26 H          11.0588    1.3800    0.0000 H       1  UNL1        0.0265
     27 H          10.2617    1.3800    0.0000 H       1  UNL1        0.0265
     28 H           9.3267    1.3800    0.0000 H       1  UNL1        0.0265
     29 H           8.5297    1.3800    0.0000 H       1  UNL1        0.0265
     30 H          11.1278   -0.0699    0.0000 H       1  UNL1        0.0265
     31 H          11.9248   -0.0699    0.0000 H       1  UNL1        0.0265
     32 H           7.6636   -0.0699    0.0000 H       1  UNL1        0.0266
     33 H           8.4607   -0.0699    0.0000 H       1  UNL1        0.0266
     34 H          12.7908    1.3800    0.0000 H       1  UNL1        0.0265
     35 H          11.9938    1.3800    0.0000 H       1  UNL1        0.0265
     36 H           7.5947    1.3800    0.0000 H       1  UNL1        0.0290
     37 H           6.7976    1.3800    0.0000 H       1  UNL1        0.0290
     38 H          12.8598   -0.0699    0.0000 H       1  UNL1        0.0265
     39 H          13.6569   -0.0699    0.0000 H       1  UNL1        0.0265
     40 H           6.8671    0.0950    0.0000 H       1  UNL1        0.0593
     41 H          14.5229    1.3800    0.0000 H       1  UNL1        0.0265
     42 H          13.7258    1.3800    0.0000 H       1  UNL1        0.0265
     43 H          14.5919   -0.0699    0.0000 H       1  UNL1        0.0265
     44 H          15.3889   -0.0699    0.0000 H       1  UNL1        0.0265
     45 H           5.8626    1.3800    0.0000 H       1  UNL1        0.0290
     46 H           5.0656    1.3800    0.0000 H       1  UNL1        0.0290
     47 H          16.2549    1.3800    0.0000 H       1  UNL1        0.0265
     48 H          15.4579    1.3800    0.0000 H       1  UNL1        0.0265
     49 H          16.3239   -0.0699    0.0000 H       1  UNL1        0.0265
     50 H          17.1210   -0.0699    0.0000 H       1  UNL1        0.0265
     51 H           4.1996   -0.0699    0.0000 H       1  UNL1        0.0266
     52 H           4.9966   -0.0699    0.0000 H       1  UNL1        0.0266
     53 H          17.9870    1.3800    0.0000 H       1  UNL1        0.0265
     54 H          17.1899    1.3800    0.0000 H       1  UNL1        0.0265
     55 H           4.1306    1.3800    0.0000 H       1  UNL1        0.0265
     56 H           3.3335    1.3800    0.0000 H       1  UNL1        0.0265
     57 H          18.0560   -0.0699    0.0000 H       1  UNL1        0.0265
     58 H          18.8530   -0.0699    0.0000 H       1  UNL1        0.0265
     59 H           2.4675   -0.0699    0.0000 H       1  UNL1        0.0263
     60 H           3.2646   -0.0699    0.0000 H       1  UNL1        0.0263
     61 H           5.7932   -0.9050    0.0000 H       1  UNL1        0.2098
     62 H          19.7190    1.3800    0.0000 H       1  UNL1        0.0263
     63 H          18.9220    1.3800    0.0000 H       1  UNL1        0.0263
     64 H           2.3100    1.4419    0.0000 H       1  UNL1        0.0230
     65 H           1.4631    1.2150    0.0000 H       1  UNL1        0.0230
     66 H           1.6900    0.3681    0.0000 H       1  UNL1        0.0230
     67 H          19.8765   -0.1319    0.0000 H       1  UNL1        0.0230
     68 H          20.7235    0.0950    0.0000 H       1  UNL1        0.0230
     69 H          20.4965    0.9419    0.0000 H       1  UNL1        0.0230
@<TRIPOS>BOND
     1     1    10    1
     2     1    61    1
     3     2     3    1
     4     2     4    1
     5     2    24    1
     6     2    25    1
     7     3     5    1
     8     3    26    1
     9     3    27    1
    10     4     6    1
    11     4    28    1
    12     4    29    1
    13     5     7    1
    14     5    30    1
    15     5    31    1
    16     6     8    1
    17     6    32    1
    18     6    33    1
    19     7     9    1
    20     7    34    1
    21     7    35    1
    22     8    10    1
    23     8    36    1
    24     8    37    1
    25     9    11    1
    26     9    38    1
    27     9    39    1
    28    10    13    1
    29    10    40    1
    30    11    12    1
    31    11    41    1
    32    11    42    1
    33    12    14    1
    34    12    43    1
    35    12    44    1
    36    13    16    1
    37    13    45    1
    38    13    46    1
    39    14    15    1
    40    14    47    1
    41    14    48    1
    42    15    17    1
    43    15    49    1
    44    15    50    1
    45    16    18    1
    46    16    51    1
    47    16    52    1
    48    17    19    1
    49    17    53    1
    50    17    54    1
    51    18    20    1
    52    18    55    1
    53    18    56    1
    54    19    21    1
    55    19    57    1
    56    19    58    1
    57    20    22    1
    58    20    59    1
    59    20    60    1
    60    21    23    1
    61    21    62    1
    62    21    63    1
    63    22    64    1
    64    22    65    1
    65    22    66    1
    66    23    67    1
    67    23    68    1
    68    23    69    1
