@<TRIPOS>MOLECULE
IMPHY006745
 44 47 0 0 0
SMALL
GASTEIGER

@<TRIPOS>ATOM
      1 O           6.0682    1.9270    0.0000 O.3     1  UNL1       -0.4910
      2 O          10.4263   -1.6076    0.0000 O.3     1  UNL1       -0.4815
      3 O           8.6663    1.4270    0.0000 O.3     1  UNL1       -0.5058
      4 O           2.5381    1.9512    0.0000 O.3     1  UNL1       -0.5066
      5 C           6.9343    0.4270    0.0000 C.3     1  UNL1        0.0258
      6 C           6.0682   -0.0729    0.0000 C.3     1  UNL1       -0.0142
      7 C           7.8003   -0.0729    0.0000 C.ar    1  UNL1        0.0015
      8 C           6.9343    1.4270    0.0000 C.3     1  UNL1        0.0968
      9 C           5.2022    0.4270    0.0000 C.ar    1  UNL1       -0.0048
     10 C           8.6663    0.4270    0.0000 C.ar    1  UNL1        0.1310
     11 C          11.3324   -1.0938    0.0000 C.3     1  UNL1        0.1235
     12 C           9.5323   -0.0729    0.0000 C.ar    1  UNL1        0.0582
     13 C           5.2022    1.4270    0.0000 C.ar    1  UNL1        0.1272
     14 C           9.5323   -1.0730    0.0000 C.ar    1  UNL1        0.1324
     15 C           7.8003   -1.0730    0.0000 C.ar    1  UNL1       -0.0512
     16 C           8.6663   -1.5730    0.0000 C.ar    1  UNL1       -0.0188
     17 C          11.3324   -0.0521    0.0000 C.2     1  UNL1       -0.0408
     18 C          10.4263    0.4617    0.0000 C.2     1  UNL1       -0.0478
     19 C           4.3083   -0.1076    0.0000 C.ar    1  UNL1       -0.0516
     20 C          12.3324   -1.0976    0.0000 C.3     1  UNL1       -0.0215
     21 C          11.8290   -1.9617    0.0000 C.3     1  UNL1       -0.0215
     22 C           4.3083    1.9617    0.0000 C.ar    1  UNL1        0.0218
     23 C           3.4022    0.4062    0.0000 C.ar    1  UNL1       -0.0197
     24 C           3.4022    1.4479    0.0000 C.ar    1  UNL1        0.1203
     25 H           6.9343   -0.4230    0.0000 H       1  UNL1        0.0386
     26 H           5.6697   -0.5479    0.0000 H       1  UNL1        0.0321
     27 H           6.4668   -0.5479    0.0000 H       1  UNL1        0.0321
     28 H           7.5449    1.3194    0.0000 H       1  UNL1        0.0703
     29 H           7.1463    2.0097    0.0000 H       1  UNL1        0.0703
     30 H           7.2634   -1.3829    0.0000 H       1  UNL1        0.0623
     31 H           8.6663   -2.1930    0.0000 H       1  UNL1        0.0654
     32 H          11.8681    0.2599    0.0000 H       1  UNL1        0.0611
     33 H          10.4191    1.0817    0.0000 H       1  UNL1        0.0624
     34 H           4.3154   -0.7276    0.0000 H       1  UNL1        0.0623
     35 H          12.3300   -1.7176    0.0000 H       1  UNL1        0.0271
     36 H          12.9524   -1.1000    0.0000 H       1  UNL1        0.0271
     37 H          12.3347   -0.4776    0.0000 H       1  UNL1        0.0271
     38 H          11.2909   -2.2696    0.0000 H       1  UNL1        0.0271
     39 H          12.1369   -2.4998    0.0000 H       1  UNL1        0.0271
     40 H          12.3671   -1.6538    0.0000 H       1  UNL1        0.0271
     41 H           4.3154    2.5817    0.0000 H       1  UNL1        0.0691
     42 H           2.8665    0.0942    0.0000 H       1  UNL1        0.0654
     43 H           9.2033    1.7370    0.0000 H       1  UNL1        0.2922
     44 H           2.0000    1.6433    0.0000 H       1  UNL1        0.2921
@<TRIPOS>BOND
     1     1     8    1
     2     1    13    1
     3     2    11    1
     4     2    14    1
     5     3    10    1
     6     3    43    1
     7     4    24    1
     8     4    44    1
     9     5     6    1
    10     5     7    1
    11     5     8    1
    12     5    25    1
    13     6     9    1
    14     6    26    1
    15     6    27    1
    16     7    10   ar
    17     7    15   ar
    18     8    28    1
    19     8    29    1
    20     9    13   ar
    21     9    19   ar
    22    10    12   ar
    23    11    17    1
    24    11    20    1
    25    11    21    1
    26    12    14   ar
    27    12    18    1
    28    13    22   ar
    29    14    16   ar
    30    15    16   ar
    31    15    30    1
    32    16    31    1
    33    17    18    2
    34    17    32    1
    35    18    33    1
    36    19    23   ar
    37    19    34    1
    38    20    35    1
    39    20    36    1
    40    20    37    1
    41    21    38    1
    42    21    39    1
    43    21    40    1
    44    22    24   ar
    45    22    41    1
    46    23    24   ar
    47    23    42    1
