@<TRIPOS>MOLECULE
IMPHY009162
 24 26 0 0 0
SMALL
GASTEIGER

@<TRIPOS>ATOM
      1 O           4.5274    1.6618    0.0000 O.2     1  UNL1       -0.2866
      2 N           5.7123   -1.6618    0.0000 N.ar    1  UNL1       -0.2542
      3 C           5.3364    0.0740    0.0000 C.ar    1  UNL1        0.0511
      4 C           4.0274   -0.8771    0.0000 C.ar    1  UNL1        0.0119
      5 C           5.0274   -0.8771    0.0000 C.ar    1  UNL1        0.0827
      6 C           3.7183    0.0740    0.0000 C.ar    1  UNL1        0.0315
      7 C           4.5274    0.6618    0.0000 C.2     1  UNL1        0.1961
      8 C           6.3518    0.3063    0.0000 C.ar    1  UNL1       -0.0361
      9 C           3.3424   -1.6618    0.0000 C.ar    1  UNL1       -0.0519
     10 C           2.7029    0.3063    0.0000 C.ar    1  UNL1       -0.0503
     11 C           7.0547   -0.4624    0.0000 C.ar    1  UNL1       -0.0400
     12 C           6.6498    1.2608    0.0000 C.3     1  UNL1       -0.0389
     13 C           2.3219   -1.4531    0.0000 C.ar    1  UNL1       -0.0611
     14 C           6.7328   -1.4531    0.0000 C.ar    1  UNL1        0.0285
     15 C           2.0000   -0.4624    0.0000 C.ar    1  UNL1       -0.0610
     16 H           3.5408   -2.2492    0.0000 H       1  UNL1        0.0624
     17 H           2.5182    0.8981    0.0000 H       1  UNL1        0.0625
     18 H           7.6607   -0.3312    0.0000 H       1  UNL1        0.0635
     19 H           7.2416    1.0761    0.0000 H       1  UNL1        0.0278
     20 H           6.8345    1.8526    0.0000 H       1  UNL1        0.0278
     21 H           6.0580    1.4456    0.0000 H       1  UNL1        0.0278
     22 H           1.9088   -1.9154    0.0000 H       1  UNL1        0.0618
     23 H           7.1459   -1.9154    0.0000 H       1  UNL1        0.0830
     24 H           1.3940   -0.3312    0.0000 H       1  UNL1        0.0618
@<TRIPOS>BOND
     1     1     7    2
     2     2     5   ar
     3     2    14   ar
     4     3     5   ar
     5     3     7    1
     6     3     8   ar
     7     4     5    1
     8     4     6   ar
     9     4     9   ar
    10     6     7    1
    11     6    10   ar
    12     8    11   ar
    13     8    12    1
    14     9    13   ar
    15     9    16    1
    16    10    15   ar
    17    10    17    1
    18    11    14   ar
    19    11    18    1
    20    12    19    1
    21    12    20    1
    22    12    21    1
    23    13    15   ar
    24    13    22    1
    25    14    23    1
    26    15    24    1
