@<TRIPOS>MOLECULE
IMPHY008100
 41 42 0 0 0
SMALL
GASTEIGER

@<TRIPOS>ATOM
      1 O           5.8207    1.3764    0.0000 O.3     1  UNL1       -0.3873
      2 O           4.6208    1.7126    0.0000 O.3     1  UNL1       -0.3908
      3 C           6.1328    0.4264    0.0000 C.3     1  UNL1        0.0809
      4 C           5.1881    0.1170    0.0000 C.3     1  UNL1        0.0363
      5 C           6.7204   -0.3754    0.0000 C.3     1  UNL1       -0.0019
      6 C           5.1931   -0.8830    0.0000 C.2     1  UNL1       -0.0585
      7 C           6.9399    1.0168    0.0000 C.3     1  UNL1       -0.0168
      8 C           4.4032    0.7365    0.0000 C.3     1  UNL1        0.0680
      9 C           6.1408   -1.1830    0.0000 C.2     1  UNL1       -0.0699
     10 C           4.4144   -1.5104    0.0000 C.3     1  UNL1       -0.0126
     11 C           3.4294    0.5092    0.0000 C.3     1  UNL1       -0.0052
     12 C           7.8548    0.6131    0.0000 C.3     1  UNL1       -0.0600
     13 C           6.8321    2.0110    0.0000 C.3     1  UNL1       -0.0600
     14 C           3.0000   -0.3940    0.0000 C.2     1  UNL1       -0.0738
     15 C           6.4562   -2.1320    0.0000 C.3     1  UNL1       -0.0434
     16 C           3.4384   -1.2928    0.0000 C.2     1  UNL1       -0.0809
     17 C           2.0000   -0.3989    0.0000 C.3     1  UNL1       -0.0437
     18 H           5.3368    0.9539    0.0000 H       1  UNL1        0.0399
     19 H           7.1833   -0.7878    0.0000 H       1  UNL1        0.0338
     20 H           7.1792    0.0416    0.0000 H       1  UNL1        0.0338
     21 H           7.4403    1.3829    0.0000 H       1  UNL1        0.0323
     22 H           3.9626    1.1728    0.0000 H       1  UNL1        0.0603
     23 H           4.1482   -2.0704    0.0000 H       1  UNL1        0.0353
     24 H           4.9010   -1.8946    0.0000 H       1  UNL1        0.0353
     25 H           3.4263    1.1292    0.0000 H       1  UNL1        0.0335
     26 H           2.8242    0.6441    0.0000 H       1  UNL1        0.0335
     27 H           6.2340    1.8386    0.0000 H       1  UNL1        0.2102
     28 H           7.4485    2.0778    0.0000 H       1  UNL1        0.0233
     29 H           6.7653    2.6274    0.0000 H       1  UNL1        0.0233
     30 H           7.6044    0.0458    0.0000 H       1  UNL1        0.0233
     31 H           6.2157    1.9442    0.0000 H       1  UNL1        0.0233
     32 H           8.4220    0.3627    0.0000 H       1  UNL1        0.0233
     33 H           8.1051    1.1803    0.0000 H       1  UNL1        0.0233
     34 H           5.8679   -2.3276    0.0000 H       1  UNL1        0.0274
     35 H           6.6518   -2.7204    0.0000 H       1  UNL1        0.0274
     36 H           7.0446   -1.9364    0.0000 H       1  UNL1        0.0274
     37 H           3.0542   -1.7794    0.0000 H       1  UNL1        0.0575
     38 H           4.1642    2.1320    0.0000 H       1  UNL1        0.2098
     39 H           1.9969    0.2210    0.0000 H       1  UNL1        0.0274
     40 H           1.3800   -0.4020    0.0000 H       1  UNL1        0.0274
     41 H           2.0031   -1.0189    0.0000 H       1  UNL1        0.0274
@<TRIPOS>BOND
     1     3     1    1
     2     1    27    1
     3     8     2    1
     4     2    38    1
     5     3     4    1
     6     3     5    1
     7     3     7    1
     8     4     6    1
     9     4     8    1
    10     4    18    1
    11     5     9    1
    12     5    19    1
    13     5    20    1
    14     6     9    2
    15     6    10    1
    16     7    12    1
    17     7    13    1
    18     7    21    1
    19     8    11    1
    20     8    22    1
    21     9    15    1
    22    10    16    1
    23    10    23    1
    24    10    24    1
    25    11    14    1
    26    11    25    1
    27    11    26    1
    28    12    30    1
    29    12    32    1
    30    12    33    1
    31    13    28    1
    32    13    29    1
    33    13    31    1
    34    14    16    2
    35    14    17    1
    36    15    34    1
    37    15    35    1
    38    15    36    1
    39    16    37    1
    40    17    39    1
    41    17    40    1
    42    17    41    1
