@<TRIPOS>MOLECULE
IMPHY007692
 52 54 0 0 0
SMALL
GASTEIGER

@<TRIPOS>ATOM
      1 O           2.3038   -1.8193    0.0000 O.3     1  UNL1       -0.4802
      2 O           3.8137   -2.6679    0.0000 O.2     1  UNL1       -0.2504
      3 C           4.6876    0.5987    0.0000 C.3     1  UNL1       -0.0251
      4 C           4.6876   -0.4013    0.0000 C.3     1  UNL1       -0.0199
      5 C           5.5536    1.0987    0.0000 C.3     1  UNL1       -0.0314
      6 C           6.4196    0.5987    0.0000 C.3     1  UNL1       -0.0277
      7 C           3.7937   -0.9360    0.0000 C.3     1  UNL1        0.0681
      8 C           5.5536   -0.9013    0.0000 C.3     1  UNL1       -0.0484
      9 C           3.7937    1.1333    0.0000 C.3     1  UNL1       -0.0470
     10 C           6.4196   -0.4013    0.0000 C.3     1  UNL1       -0.0488
     11 C           5.5376    2.1402    0.0000 C.3     1  UNL1       -0.0457
     12 C           2.8876   -0.4221    0.0000 C.3     1  UNL1       -0.0372
     13 C           7.3296    1.1055    0.0000 C.3     1  UNL1        0.0007
     14 C           2.8876    0.6195    0.0000 C.3     1  UNL1       -0.0515
     15 C           4.6876    1.5987    0.0000 C.3     1  UNL1       -0.0590
     16 C           6.4356    2.6679    0.0000 C.3     1  UNL1       -0.0312
     17 C           7.3377    2.1471    0.0000 C.2     1  UNL1       -0.0695
     18 C           4.3036   -1.7962    0.0000 C.3     1  UNL1       -0.0491
     19 C           3.3037   -1.8077    0.0000 C.2     1  UNL1        0.3110
     20 C           8.1898    0.5955    0.0000 C.2     1  UNL1       -0.0838
     21 C           8.2056    2.6438    0.0000 C.2     1  UNL1       -0.0989
     22 C           9.0616    1.0855    0.0000 C.2     1  UNL1       -0.1021
     23 H           4.6924   -1.0213    0.0000 H       1  UNL1        0.0317
     24 H           6.0882    1.4128    0.0000 H       1  UNL1        0.0309
     25 H           6.9542    0.2845    0.0000 H       1  UNL1        0.0312
     26 H           5.1551   -1.3763    0.0000 H       1  UNL1        0.0268
     27 H           5.9521   -1.3763    0.0000 H       1  UNL1        0.0268
     28 H           4.1982    1.6031    0.0000 H       1  UNL1        0.0271
     29 H           3.4000    1.6124    0.0000 H       1  UNL1        0.0271
     30 H           6.6317   -0.9839    0.0000 H       1  UNL1        0.0268
     31 H           7.0302   -0.2937    0.0000 H       1  UNL1        0.0268
     32 H           5.3195    2.7206    0.0000 H       1  UNL1        0.0271
     33 H           4.9284    2.0247    0.0000 H       1  UNL1        0.0271
     34 H           2.2767   -0.3161    0.0000 H       1  UNL1        0.0276
     35 H           2.6785   -1.0058    0.0000 H       1  UNL1        0.0276
     36 H           7.8696    1.4103    0.0000 H       1  UNL1        0.0391
     37 H           2.6785    1.2032    0.0000 H       1  UNL1        0.0266
     38 H           2.2767    0.5134    0.0000 H       1  UNL1        0.0266
     39 H           5.3076    1.5987    0.0000 H       1  UNL1        0.0235
     40 H           4.6876    2.2187    0.0000 H       1  UNL1        0.0235
     41 H           4.0676    1.5987    0.0000 H       1  UNL1        0.0235
     42 H           6.8329    3.1439    0.0000 H       1  UNL1        0.0310
     43 H           6.0346    3.1408    0.0000 H       1  UNL1        0.0310
     44 H           3.7703   -2.1124    0.0000 H       1  UNL1        0.0240
     45 H           4.6198   -2.3295    0.0000 H       1  UNL1        0.0240
     46 H           4.8370   -1.4800    0.0000 H       1  UNL1        0.0240
     47 H           8.1827   -0.0244    0.0000 H       1  UNL1        0.0572
     48 H           8.7414    2.3317    0.0000 H       1  UNL1        0.0535
     49 H           8.2080    3.2638    0.0000 H       1  UNL1        0.0535
     50 H           2.0000   -2.3598    0.0000 H       1  UNL1        0.2951
     51 H           9.5949    0.7693    0.0000 H       1  UNL1        0.0532
     52 H           9.0688    1.7054    0.0000 H       1  UNL1        0.0532
@<TRIPOS>BOND
     1     1    19    1
     2     1    50    1
     3     2    19    2
     4     3     4    1
     5     3     5    1
     6     3     9    1
     7     3    15    1
     8     4     7    1
     9     4     8    1
    10     4    23    1
    11     5     6    1
    12     5    11    1
    13     5    24    1
    14     6    10    1
    15     6    13    1
    16     6    25    1
    17     7    12    1
    18     7    18    1
    19     7    19    1
    20     8    10    1
    21     8    26    1
    22     8    27    1
    23     9    14    1
    24     9    28    1
    25     9    29    1
    26    10    30    1
    27    10    31    1
    28    11    16    1
    29    11    32    1
    30    11    33    1
    31    12    14    1
    32    12    34    1
    33    12    35    1
    34    13    17    1
    35    13    20    1
    36    13    36    1
    37    14    37    1
    38    14    38    1
    39    15    39    1
    40    15    40    1
    41    15    41    1
    42    16    17    1
    43    16    42    1
    44    16    43    1
    45    17    21    2
    46    18    44    1
    47    18    45    1
    48    18    46    1
    49    20    22    2
    50    20    47    1
    51    21    48    1
    52    21    49    1
    53    22    51    1
    54    22    52    1
