@<TRIPOS>MOLECULE
IMPHY014525
 86 89 0 0 0
SMALL
GASTEIGER

@<TRIPOS>ATOM
      1 O          10.3378   -0.0869    0.0000 O.3     1  UNL1       -0.3839
      2 O           9.8688   -1.1091    0.0000 O.3     1  UNL1       -0.4580
      3 O           5.9313    0.5219    0.0000 O.3     1  UNL1       -0.4567
      4 O           5.5585   -0.6299    0.0000 O.3     1  UNL1       -0.4571
      5 O           6.6069    2.1529    0.0000 O.3     1  UNL1       -0.4533
      6 O          10.6498    2.9338    0.0000 O.3     1  UNL1       -0.3874
      7 O           7.7026   -3.4466    0.0000 O.3     1  UNL1       -0.3874
      8 O          11.5419   -0.6608    0.0000 O.2     1  UNL1       -0.2512
      9 O           5.9313    2.2539    0.0000 O.2     1  UNL1       -0.2512
     10 O           4.8772   -2.2224    0.0000 O.2     1  UNL1       -0.2450
     11 O           7.8316    3.3776    0.0000 O.2     1  UNL1       -0.2511
     12 C           7.3140   -0.4020    0.0000 C.3     1  UNL1        0.0558
     13 C           8.2378   -0.7847    0.0000 C.3     1  UNL1        0.0344
     14 C           9.5444    0.5219    0.0000 C.3     1  UNL1        0.1148
     15 C           9.1617    1.4458    0.0000 C.3     1  UNL1        0.0223
     16 C           9.1617   -0.4020    0.0000 C.3     1  UNL1        0.1397
     17 C           6.9313    0.5219    0.0000 C.3     1  UNL1        0.1529
     18 C           6.4779   -1.0233    0.0000 C.3     1  UNL1        0.1156
     19 C           8.2378    1.8284    0.0000 C.2     1  UNL1       -0.0161
     20 C           7.3140    1.4458    0.0000 C.3     1  UNL1        0.1623
     21 C          10.2175    1.2636    0.0000 C.3     1  UNL1        0.0103
     22 C           8.3897   -1.8152    0.0000 C.2     1  UNL1       -0.0410
     23 C           6.6059   -2.0570    0.0000 C.3     1  UNL1        0.0149
     24 C           6.3901   -0.0193    0.0000 C.3     1  UNL1       -0.0520
     25 C           9.9427    2.2267    0.0000 C.3     1  UNL1        0.0791
     26 C           7.5682   -2.4556    0.0000 C.3     1  UNL1        0.0798
     27 C           8.9796    2.5016    0.0000 C.2     1  UNL1       -0.0410
     28 C           9.4594    2.5566    0.0000 C.3     1  UNL1       -0.0532
     29 C          10.2725    1.7434    0.0000 C.3     1  UNL1       -0.0532
     30 C           8.7520    3.4753    0.0000 C.3     1  UNL1       -0.0410
     31 C           9.3180   -2.1872    0.0000 C.2     1  UNL1       -0.0966
     32 C          10.8348   -1.3679    0.0000 C.2     1  UNL1        0.3043
     33 C           5.4313    1.3879    0.0000 C.2     1  UNL1        0.3043
     34 C           4.7582   -1.2295    0.0000 C.2     1  UNL1        0.3395
     35 C           6.8657    3.1188    0.0000 C.2     1  UNL1        0.3046
     36 C          11.0936   -2.3338    0.0000 C.3     1  UNL1        0.0332
     37 C           4.4313    1.3879    0.0000 C.3     1  UNL1        0.0332
     38 C           3.8388   -0.8362    0.0000 C.ar    1  UNL1        0.0590
     39 C           6.1586    3.8259    0.0000 C.3     1  UNL1        0.0333
     40 C           3.7197    0.1567    0.0000 C.ar    1  UNL1       -0.0478
     41 C           3.0384   -1.4357    0.0000 C.ar    1  UNL1       -0.0478
     42 C           2.8003    0.5501    0.0000 C.ar    1  UNL1       -0.0610
     43 C           2.1190   -1.0424    0.0000 C.ar    1  UNL1       -0.0610
     44 C           2.0000   -0.0495    0.0000 C.ar    1  UNL1       -0.0617
     45 H           9.0232   -1.1100    0.0000 H       1  UNL1        0.0391
     46 H           9.7698   -0.2810    0.0000 H       1  UNL1        0.0769
     47 H           6.5868    1.0374    0.0000 H       1  UNL1        0.0782
     48 H           5.9824   -1.3960    0.0000 H       1  UNL1        0.0742
     49 H           7.4349    2.0538    0.0000 H       1  UNL1        0.0820
     50 H          10.5920    0.7695    0.0000 H       1  UNL1        0.0323
     51 H          10.7722    1.5406    0.0000 H       1  UNL1        0.0323
     52 H           5.9866   -2.0268    0.0000 H       1  UNL1        0.0329
     53 H           6.4702   -2.6620    0.0000 H       1  UNL1        0.0329
     54 H           6.6274    0.5535    0.0000 H       1  UNL1        0.0238
     55 H           5.8173    0.2179    0.0000 H       1  UNL1        0.0238
     56 H           6.1528   -0.5921    0.0000 H       1  UNL1        0.0238
     57 H          10.5429    2.0711    0.0000 H       1  UNL1        0.0641
     58 H           8.1424   -2.6896    0.0000 H       1  UNL1        0.0641
     59 H          10.0582    2.3961    0.0000 H       1  UNL1        0.0239
     60 H           9.6198    3.1554    0.0000 H       1  UNL1        0.0239
     61 H           8.8605    2.7170    0.0000 H       1  UNL1        0.0239
     62 H          10.4330    1.1445    0.0000 H       1  UNL1        0.0239
     63 H          10.8714    1.9039    0.0000 H       1  UNL1        0.0239
     64 H          10.1121    2.3423    0.0000 H       1  UNL1        0.0239
     65 H          10.9106    0.1504    0.0000 H       1  UNL1        0.2104
     66 H           9.3558    3.6164    0.0000 H       1  UNL1        0.0275
     67 H           8.6110    4.0791    0.0000 H       1  UNL1        0.0275
     68 H           8.1483    3.3343    0.0000 H       1  UNL1        0.0275
     69 H           9.4060   -2.8009    0.0000 H       1  UNL1        0.0535
     70 H           9.8054   -1.8041    0.0000 H       1  UNL1        0.0535
     71 H          11.2487    2.7734    0.0000 H       1  UNL1        0.2102
     72 H           7.2122   -3.8259    0.0000 H       1  UNL1        0.2102
     73 H          10.4947   -2.4943    0.0000 H       1  UNL1        0.0342
     74 H          11.2540   -2.9327    0.0000 H       1  UNL1        0.0342
     75 H          11.6925   -2.1734    0.0000 H       1  UNL1        0.0342
     76 H           4.4313    2.0079    0.0000 H       1  UNL1        0.0342
     77 H           3.8113    1.3879    0.0000 H       1  UNL1        0.0342
     78 H           4.4313    0.7679    0.0000 H       1  UNL1        0.0342
     79 H           6.5970    4.2643    0.0000 H       1  UNL1        0.0342
     80 H           5.7202    4.2643    0.0000 H       1  UNL1        0.0342
     81 H           5.7202    3.3875    0.0000 H       1  UNL1        0.0342
     82 H           4.2159    0.5285    0.0000 H       1  UNL1        0.0626
     83 H           3.1123   -2.0513    0.0000 H       1  UNL1        0.0626
     84 H           2.7265    1.1657    0.0000 H       1  UNL1        0.0618
     85 H           1.6228   -1.4141    0.0000 H       1  UNL1        0.0618
     86 H           1.4300    0.1944    0.0000 H       1  UNL1        0.0618
@<TRIPOS>BOND
     1    14     1    1
     2     1    65    1
     3    16     2    1
     4     2    32    1
     5    17     3    1
     6     3    33    1
     7    18     4    1
     8     4    34    1
     9    20     5    1
    10     5    35    1
    11    25     6    1
    12     6    71    1
    13    26     7    1
    14     7    72    1
    15     8    32    2
    16     9    33    2
    17    10    34    2
    18    11    35    2
    19    12    13    1
    20    12    17    1
    21    12    18    1
    22    12    24    1
    23    13    16    1
    24    13    22    1
    25    13    45    1
    26    14    15    1
    27    14    16    1
    28    14    21    1
    29    15    19    1
    30    15    28    1
    31    15    29    1
    32    16    46    1
    33    17    20    1
    34    17    47    1
    35    18    23    1
    36    18    48    1
    37    19    20    1
    38    19    27    2
    39    20    49    1
    40    21    25    1
    41    21    50    1
    42    21    51    1
    43    22    26    1
    44    22    31    2
    45    23    26    1
    46    23    52    1
    47    23    53    1
    48    24    54    1
    49    24    55    1
    50    24    56    1
    51    25    27    1
    52    25    57    1
    53    26    58    1
    54    27    30    1
    55    28    59    1
    56    28    60    1
    57    28    61    1
    58    29    62    1
    59    29    63    1
    60    29    64    1
    61    30    66    1
    62    30    67    1
    63    30    68    1
    64    31    69    1
    65    31    70    1
    66    32    36    1
    67    33    37    1
    68    34    38    1
    69    35    39    1
    70    36    73    1
    71    36    74    1
    72    36    75    1
    73    37    76    1
    74    37    77    1
    75    37    78    1
    76    38    40   ar
    77    38    41   ar
    78    39    79    1
    79    39    80    1
    80    39    81    1
    81    40    42   ar
    82    40    82    1
    83    41    43   ar
    84    41    83    1
    85    42    44   ar
    86    42    84    1
    87    43    44   ar
    88    43    85    1
    89    44    86    1
