@<TRIPOS>MOLECULE
IMPHY012470
 20 21 0 0 0
SMALL
GASTEIGER

@<TRIPOS>ATOM
      1 O           4.6660   -1.4827    0.0000 O.2     1  UNL1       -0.4597
      2 O           4.6660    1.5173    0.0000 O.2     1  UNL1       -0.2870
      3 C           3.8000    0.0173    0.0000 C.ar    1  UNL1        0.0640
      4 C           3.8000   -0.9827    0.0000 C.ar    1  UNL1        0.1387
      5 C           5.5321   -0.9827    0.0000 C.ar    1  UNL1        0.1062
      6 C           4.6660    0.5173    0.0000 C.ar    1  UNL1        0.1927
      7 C           5.5321    0.0173    0.0000 C.ar    1  UNL1        0.0236
      8 C           2.9061    0.5520    0.0000 C.ar    1  UNL1       -0.0474
      9 C           2.9061   -1.5173    0.0000 C.ar    1  UNL1       -0.0186
     10 C           2.0000    0.0381    0.0000 C.ar    1  UNL1       -0.0609
     11 C           2.0000   -1.0035    0.0000 C.ar    1  UNL1       -0.0582
     12 C           6.3981   -1.4827    0.0000 C.3     1  UNL1       -0.0062
     13 H           6.0690    0.3273    0.0000 H       1  UNL1        0.0689
     14 H           2.9132    1.1720    0.0000 H       1  UNL1        0.0626
     15 H           2.9132   -2.1373    0.0000 H       1  UNL1        0.0654
     16 H           1.4643    0.3502    0.0000 H       1  UNL1        0.0618
     17 H           1.4643   -1.3156    0.0000 H       1  UNL1        0.0619
     18 H           6.0881   -2.0196    0.0000 H       1  UNL1        0.0308
     19 H           6.9350   -1.7927    0.0000 H       1  UNL1        0.0308
     20 H           6.7081   -0.9457    0.0000 H       1  UNL1        0.0308
@<TRIPOS>BOND
     1     1     4   ar
     2     1     5   ar
     3     2     6    2
     4     3     4   ar
     5     3     6   ar
     6     3     8   ar
     7     4     9   ar
     8     5     7   ar
     9     5    12    1
    10     6     7   ar
    11     7    13    1
    12     8    10   ar
    13     8    14    1
    14     9    11   ar
    15     9    15    1
    16    10    11   ar
    17    10    16    1
    18    11    17    1
    19    12    18    1
    20    12    19    1
    21    12    20    1
