@<TRIPOS>MOLECULE
IMPHY013400
 41 45 0 0 0
SMALL
GASTEIGER

@<TRIPOS>ATOM
      1 O           6.2719   -1.4889    0.0000 O.3     1  UNL1       -0.4830
      2 O           6.4811    1.4829    0.0000 O.3     1  UNL1       -0.4870
      3 O           2.2123   -1.5056    0.0000 O.3     1  UNL1       -0.4526
      4 O           2.8914   -3.0275    0.0000 O.3     1  UNL1       -0.4525
      5 O           8.2295    2.5175    0.0000 O.3     1  UNL1       -0.4884
      6 O          10.0112    1.5071    0.0000 O.3     1  UNL1       -0.4884
      7 O          10.0112   -0.5412    0.0000 O.3     1  UNL1       -0.5032
      8 C           5.6151   -0.0171    0.0000 C.3     1  UNL1        0.0631
      9 C           6.4811   -0.5171    0.0000 C.3     1  UNL1        0.1387
     10 C           4.8780   -0.6842    0.0000 C.ar    1  UNL1        0.0082
     11 C           5.6151    0.9829    0.0000 C.3     1  UNL1        0.1004
     12 C           7.3471   -0.0171    0.0000 C.ar    1  UNL1        0.0423
     13 C           5.2832   -1.5920    0.0000 C.ar    1  UNL1        0.1288
     14 C           7.3471    0.9829    0.0000 C.ar    1  UNL1        0.1725
     15 C           3.8499   -0.5610    0.0000 C.ar    1  UNL1       -0.0090
     16 C           4.6882   -2.4395    0.0000 C.ar    1  UNL1        0.0259
     17 C           8.2410   -0.5517    0.0000 C.ar    1  UNL1       -0.0061
     18 C           3.2356   -1.3945    0.0000 C.ar    1  UNL1        0.1667
     19 C           3.6576   -2.3401    0.0000 C.ar    1  UNL1        0.1697
     20 C           8.2410    1.5176    0.0000 C.ar    1  UNL1        0.2076
     21 C           9.1471   -0.0379    0.0000 C.ar    1  UNL1        0.1628
     22 C           9.1471    1.0037    0.0000 C.ar    1  UNL1        0.2070
     23 C           2.0000   -2.5128    0.0000 C.3     1  UNL1        0.2332
     24 C           9.0897    3.0275    0.0000 C.3     1  UNL1        0.0791
     25 C          10.8792    1.0104    0.0000 C.3     1  UNL1        0.0791
     26 H           5.0483    0.2344    0.0000 H       1  UNL1        0.0423
     27 H           6.9822   -0.8822    0.0000 H       1  UNL1        0.0793
     28 H           5.4030    1.5655    0.0000 H       1  UNL1        0.0704
     29 H           5.0045    0.8753    0.0000 H       1  UNL1        0.0704
     30 H           3.6038    0.0081    0.0000 H       1  UNL1        0.0659
     31 H           4.9474   -3.0027    0.0000 H       1  UNL1        0.0692
     32 H           8.2339   -1.1717    0.0000 H       1  UNL1        0.0660
     33 H           1.4101   -2.3219    0.0000 H       1  UNL1        0.1166
     34 H           1.7482   -3.0794    0.0000 H       1  UNL1        0.1166
     35 H          10.0088   -1.1612    0.0000 H       1  UNL1        0.2923
     36 H           9.4059    2.4942    0.0000 H       1  UNL1        0.0660
     37 H           9.6230    3.3437    0.0000 H       1  UNL1        0.0660
     38 H           8.7735    3.5608    0.0000 H       1  UNL1        0.0660
     39 H          10.5712    0.4723    0.0000 H       1  UNL1        0.0660
     40 H          11.4173    0.7025    0.0000 H       1  UNL1        0.0660
     41 H          11.1871    1.5485    0.0000 H       1  UNL1        0.0660
@<TRIPOS>BOND
     1     1     9    1
     2     1    13    1
     3     2    11    1
     4     2    14    1
     5     3    18    1
     6     3    23    1
     7     4    19    1
     8     4    23    1
     9     5    20    1
    10     5    24    1
    11     6    22    1
    12     6    25    1
    13     7    21    1
    14     7    35    1
    15     8     9    1
    16     8    10    1
    17     8    11    1
    18     8    26    1
    19     9    12    1
    20     9    27    1
    21    10    13   ar
    22    10    15   ar
    23    11    28    1
    24    11    29    1
    25    12    14   ar
    26    12    17   ar
    27    13    16   ar
    28    14    20   ar
    29    15    18   ar
    30    15    30    1
    31    16    19   ar
    32    16    31    1
    33    17    21   ar
    34    17    32    1
    35    18    19   ar
    36    20    22   ar
    37    21    22   ar
    38    23    33    1
    39    23    34    1
    40    24    36    1
    41    24    37    1
    42    24    38    1
    43    25    39    1
    44    25    40    1
    45    25    41    1
