@<TRIPOS>MOLECULE
IMPHY003071
 115 122 0 0 0
SMALL
GASTEIGER

@<TRIPOS>ATOM
      1 O           8.6192    6.0374    0.0000 O.3     1  UNL1       -0.3448
      2 O           5.4934    3.9836    0.0000 O.3     1  UNL1       -0.3912
      3 O           6.8468    6.9322    0.0000 O.3     1  UNL1       -0.3483
      4 O           7.1962   -2.2066    0.0000 O.3     1  UNL1       -0.3429
      5 O           5.3888   -1.1538    0.0000 O.3     1  UNL1       -0.3892
      6 O           5.4641   -2.2066    0.0000 O.3     1  UNL1       -0.3405
      7 O           7.1962   -4.2066    0.0000 O.3     1  UNL1       -0.3841
      8 O           5.4641   -5.2066    0.0000 O.3     1  UNL1       -0.3864
      9 O           3.7320   -4.2066    0.0000 O.3     1  UNL1       -0.3401
     10 O           3.7320   -1.2066    0.0000 O.3     1  UNL1       -0.3924
     11 O           4.5981   -5.7066    0.0000 O.3     1  UNL1       -0.3405
     12 O           2.0000   -5.2066    0.0000 O.3     1  UNL1       -0.3841
     13 O           2.0000   -7.2066    0.0000 O.3     1  UNL1       -0.3864
     14 O           3.7320   -8.2066    0.0000 O.3     1  UNL1       -0.3865
     15 O           6.3301   -6.7066    0.0000 O.3     1  UNL1       -0.3924
     16 C           7.2254    3.9902    0.0000 C.3     1  UNL1        0.0026
     17 C           8.0934    3.4936    0.0000 C.3     1  UNL1       -0.0275
     18 C           8.0972    2.4936    0.0000 C.3     1  UNL1       -0.0341
     19 C           7.4309    4.9628    0.0000 C.3     1  UNL1        0.0008
     20 C           7.2331    1.9902    0.0000 C.3     1  UNL1       -0.0298
     21 C           7.2211    0.9487    0.0000 C.3     1  UNL1       -0.0236
     22 C           8.4192    5.0697    0.0000 C.3     1  UNL1        0.0660
     23 C           8.8278    4.1635    0.0000 C.3     1  UNL1       -0.0225
     24 C           6.3613    3.4869    0.0000 C.3     1  UNL1        0.0615
     25 C           6.3652    2.4869    0.0000 C.3     1  UNL1       -0.0227
     26 C           7.0286    5.8654    0.0000 C.3     1  UNL1        0.0161
     27 C           8.1211    0.4244    0.0000 C.3     1  UNL1       -0.0329
     28 C           9.0092    1.9902    0.0000 C.3     1  UNL1       -0.0494
     29 C           7.7615    6.5282    0.0000 C.3     1  UNL1        0.1732
     30 C           9.0212    0.9487    0.0000 C.3     1  UNL1       -0.0494
     31 C           6.3575    4.4869    0.0000 C.3     1  UNL1       -0.0566
     32 C           6.2712    0.4244    0.0000 C.3     1  UNL1       -0.0185
     33 C           8.1337   -0.6605    0.0000 C.3     1  UNL1       -0.0207
     34 C           6.3570    1.4520    0.0000 C.3     1  UNL1       -0.0590
     35 C           6.2586   -0.6605    0.0000 C.3     1  UNL1        0.0819
     36 C           7.1962   -1.2066    0.0000 C.3     1  UNL1        0.0879
     37 C           6.0502    6.0721    0.0000 C.3     1  UNL1       -0.0572
     38 C           8.5688    7.1184    0.0000 C.3     1  UNL1        0.0018
     39 C           8.4613    8.1126    0.0000 C.3     1  UNL1       -0.0461
     40 C           6.7393    7.9264    0.0000 C.3     1  UNL1        0.0509
     41 C           7.5465    8.5166    0.0000 C.3     1  UNL1       -0.0292
     42 C           6.3301   -2.7066    0.0000 C.3     1  UNL1        0.1883
     43 C           6.3301   -3.7066    0.0000 C.3     1  UNL1        0.1341
     44 C           5.4641   -4.2066    0.0000 C.3     1  UNL1        0.1144
     45 C           4.5981   -2.7066    0.0000 C.3     1  UNL1        0.1134
     46 C           4.5981   -3.7066    0.0000 C.3     1  UNL1        0.1184
     47 C           3.7320   -2.2066    0.0000 C.3     1  UNL1        0.0730
     48 C           3.7320   -5.2066    0.0000 C.3     1  UNL1        0.1884
     49 C           2.8660   -5.7066    0.0000 C.3     1  UNL1        0.1341
     50 C           2.8660   -6.7066    0.0000 C.3     1  UNL1        0.1141
     51 C           4.5981   -6.7066    0.0000 C.3     1  UNL1        0.1130
     52 C           3.7320   -7.2066    0.0000 C.3     1  UNL1        0.1119
     53 C           5.4641   -7.2066    0.0000 C.3     1  UNL1        0.0730
     54 H           8.8716    3.1518    0.0000 H       1  UNL1        0.0310
     55 H           8.8284    2.9271    0.0000 H       1  UNL1        0.0306
     56 H           6.5856    4.8733    0.0000 H       1  UNL1        0.0336
     57 H           7.9676    1.5624    0.0000 H       1  UNL1        0.0310
     58 H           9.2641    5.1629    0.0000 H       1  UNL1        0.0600
     59 H           9.1952    3.6640    0.0000 H       1  UNL1        0.0293
     60 H           9.3631    4.4763    0.0000 H       1  UNL1        0.0293
     61 H           5.8256    3.1748    0.0000 H       1  UNL1        0.0599
     62 H           5.7542    2.5922    0.0000 H       1  UNL1        0.0293
     63 H           6.1554    1.9035    0.0000 H       1  UNL1        0.0293
     64 H           6.8671    6.4640    0.0000 H       1  UNL1        0.0354
     65 H           8.8605    0.0051    0.0000 H       1  UNL1        0.0307
     66 H           9.6212    1.8912    0.0000 H       1  UNL1        0.0268
     67 H           9.2114    2.5763    0.0000 H       1  UNL1        0.0268
     68 H           9.2370    0.3674    0.0000 H       1  UNL1        0.0268
     69 H           9.6308    1.0618    0.0000 H       1  UNL1        0.0268
     70 H           6.6654    5.0250    0.0000 H       1  UNL1        0.0236
     71 H           5.8193    4.7948    0.0000 H       1  UNL1        0.0236
     72 H           6.0495    3.9488    0.0000 H       1  UNL1        0.0236
     73 H           6.0689    1.0105    0.0000 H       1  UNL1        0.0296
     74 H           5.6591    0.3254    0.0000 H       1  UNL1        0.0296
     75 H           8.3495   -1.2418    0.0000 H       1  UNL1        0.0294
     76 H           8.7433   -0.5474    0.0000 H       1  UNL1        0.0294
     77 H           6.6690    1.9878    0.0000 H       1  UNL1        0.0235
     78 H           5.8212    1.7641    0.0000 H       1  UNL1        0.0235
     79 H           6.0449    0.9163    0.0000 H       1  UNL1        0.0235
     80 H           5.7247   -0.3454    0.0000 H       1  UNL1        0.0619
     81 H           7.7337   -1.5156    0.0000 H       1  UNL1        0.0623
     82 H           6.1783    6.6787    0.0000 H       1  UNL1        0.0234
     83 H           5.4436    6.2003    0.0000 H       1  UNL1        0.0234
     84 H           5.9220    5.4655    0.0000 H       1  UNL1        0.0234
     85 H           8.8422    6.5620    0.0000 H       1  UNL1        0.0317
     86 H           9.1643    7.2911    0.0000 H       1  UNL1        0.0317
     87 H           4.9576    3.6715    0.0000 H       1  UNL1        0.2098
     88 H           9.0799    8.0712    0.0000 H       1  UNL1        0.0268
     89 H           8.6095    8.7147    0.0000 H       1  UNL1        0.0268
     90 H           6.4658    8.4829    0.0000 H       1  UNL1        0.0561
     91 H           6.1438    7.7538    0.0000 H       1  UNL1        0.0561
     92 H           7.8917    9.0317    0.0000 H       1  UNL1        0.0287
     93 H           7.0993    8.9460    0.0000 H       1  UNL1        0.0287
     94 H           4.8542   -0.8397    0.0000 H       1  UNL1        0.2099
     95 H           6.3301   -2.0866    0.0000 H       1  UNL1        0.0938
     96 H           6.8671   -3.3966    0.0000 H       1  UNL1        0.0671
     97 H           6.0010   -4.5166    0.0000 H       1  UNL1        0.0648
     98 H           4.5981   -2.0866    0.0000 H       1  UNL1        0.0647
     99 H           4.0611   -3.3966    0.0000 H       1  UNL1        0.0651
    100 H           7.7331   -3.8966    0.0000 H       1  UNL1        0.2101
    101 H           3.1215   -2.0990    0.0000 H       1  UNL1        0.0584
    102 H           3.5200   -2.7892    0.0000 H       1  UNL1        0.0584
    103 H           6.0010   -5.5166    0.0000 H       1  UNL1        0.2100
    104 H           3.1951   -4.8966    0.0000 H       1  UNL1        0.0938
    105 H           3.1951   -0.8966    0.0000 H       1  UNL1        0.2095
    106 H           3.4281   -5.0866    0.0000 H       1  UNL1        0.0671
    107 H           2.8660   -7.3266    0.0000 H       1  UNL1        0.0648
    108 H           5.1350   -6.3966    0.0000 H       1  UNL1        0.0647
    109 H           4.2690   -7.5166    0.0000 H       1  UNL1        0.0647
    110 H           2.0000   -4.5866    0.0000 H       1  UNL1        0.2101
    111 H           5.0656   -7.6816    0.0000 H       1  UNL1        0.0584
    112 H           5.8626   -7.6816    0.0000 H       1  UNL1        0.0584
    113 H           2.0000   -7.8266    0.0000 H       1  UNL1        0.2100
    114 H           4.2690   -8.5166    0.0000 H       1  UNL1        0.2100
    115 H           6.8671   -7.0166    0.0000 H       1  UNL1        0.2095
@<TRIPOS>BOND
     1     1    22    1
     2    29     1    1
     3    24     2    1
     4     2    87    1
     5     3    29    1
     6     3    40    1
     7    36     4    1
     8    42     4    1
     9    35     5    1
    10     5    94    1
    11     6    42    1
    12     6    45    1
    13    43     7    1
    14     7   100    1
    15    44     8    1
    16     8   103    1
    17    46     9    1
    18    48     9    1
    19    10    47    1
    20    10   105    1
    21    11    48    1
    22    11    51    1
    23    49    12    1
    24    12   110    1
    25    50    13    1
    26    13   113    1
    27    52    14    1
    28    14   114    1
    29    15    53    1
    30    15   115    1
    31    16    17    1
    32    16    19    1
    33    16    24    1
    34    16    31    1
    35    17    18    1
    36    17    23    1
    37    17    54    1
    38    18    20    1
    39    18    28    1
    40    18    55    1
    41    19    22    1
    42    19    26    1
    43    19    56    1
    44    20    21    1
    45    20    25    1
    46    20    57    1
    47    21    27    1
    48    21    32    1
    49    21    34    1
    50    22    23    1
    51    22    58    1
    52    23    59    1
    53    23    60    1
    54    24    25    1
    55    24    61    1
    56    25    62    1
    57    25    63    1
    58    26    29    1
    59    26    37    1
    60    26    64    1
    61    27    30    1
    62    27    33    1
    63    27    65    1
    64    28    30    1
    65    28    66    1
    66    28    67    1
    67    29    38    1
    68    30    68    1
    69    30    69    1
    70    31    70    1
    71    31    71    1
    72    31    72    1
    73    32    35    1
    74    32    73    1
    75    32    74    1
    76    33    36    1
    77    33    75    1
    78    33    76    1
    79    34    77    1
    80    34    78    1
    81    34    79    1
    82    35    36    1
    83    35    80    1
    84    36    81    1
    85    37    82    1
    86    37    83    1
    87    37    84    1
    88    38    39    1
    89    38    85    1
    90    38    86    1
    91    39    41    1
    92    39    88    1
    93    39    89    1
    94    40    41    1
    95    40    90    1
    96    40    91    1
    97    41    92    1
    98    41    93    1
    99    42    43    1
   100    42    95    1
   101    43    44    1
   102    43    96    1
   103    44    46    1
   104    44    97    1
   105    45    46    1
   106    45    47    1
   107    45    98    1
   108    46    99    1
   109    47   101    1
   110    47   102    1
   111    48    49    1
   112    48   104    1
   113    49    50    1
   114    49   106    1
   115    50    52    1
   116    50   107    1
   117    51    52    1
   118    51    53    1
   119    51   108    1
   120    52   109    1
   121    53   111    1
   122    53   112    1
