@<TRIPOS>MOLECULE
IMPHY002982
 36 38 0 0 0
SMALL
GASTEIGER

@<TRIPOS>ATOM
      1 O           7.2622   -1.7327    0.0000 O.2     1  UNL1       -0.4590
      2 O           7.2622    1.2673    0.0000 O.2     1  UNL1       -0.2864
      3 O           3.7320   -1.7568    0.0000 O.3     1  UNL1       -0.4259
      4 O           2.8602   -0.2602    0.0000 O.2     1  UNL1       -0.2507
      5 C           8.1282   -0.2327    0.0000 C.ar    1  UNL1        0.0672
      6 C           6.3961   -0.2327    0.0000 C.ar    1  UNL1        0.0648
      7 C           6.3961   -1.2327    0.0000 C.ar    1  UNL1        0.1423
      8 C           7.2622    0.2673    0.0000 C.ar    1  UNL1        0.2004
      9 C           8.1282   -1.2327    0.0000 C.ar    1  UNL1        0.1139
     10 C           8.9942    0.2673    0.0000 C.ar    1  UNL1       -0.0110
     11 C           5.5022    0.3020    0.0000 C.ar    1  UNL1       -0.0439
     12 C           5.5022   -1.7673    0.0000 C.ar    1  UNL1        0.0238
     13 C           4.5961   -1.2535    0.0000 C.ar    1  UNL1        0.1351
     14 C           8.9942   -1.7327    0.0000 C.3     1  UNL1       -0.0056
     15 C           4.5961   -0.2119    0.0000 C.ar    1  UNL1       -0.0183
     16 C           9.8602   -0.2327    0.0000 C.ar    1  UNL1       -0.0538
     17 C           8.9942    1.2673    0.0000 C.ar    1  UNL1       -0.0538
     18 C          10.7263    0.2673    0.0000 C.ar    1  UNL1       -0.0612
     19 C           9.8602    1.7673    0.0000 C.ar    1  UNL1       -0.0612
     20 C          10.7263    1.2673    0.0000 C.ar    1  UNL1       -0.0617
     21 C           2.8641   -1.2602    0.0000 C.2     1  UNL1        0.3092
     22 C           2.0000   -1.7635    0.0000 C.3     1  UNL1        0.0336
     23 H           5.5094    0.9220    0.0000 H       1  UNL1        0.0627
     24 H           5.5094   -2.3873    0.0000 H       1  UNL1        0.0691
     25 H           8.6842   -2.2696    0.0000 H       1  UNL1        0.0308
     26 H           9.5312   -2.0427    0.0000 H       1  UNL1        0.0308
     27 H           9.3042   -1.1957    0.0000 H       1  UNL1        0.0308
     28 H           4.0604    0.1002    0.0000 H       1  UNL1        0.0654
     29 H           9.8602   -0.8527    0.0000 H       1  UNL1        0.0624
     30 H           8.4573    1.5773    0.0000 H       1  UNL1        0.0624
     31 H          11.2632   -0.0427    0.0000 H       1  UNL1        0.0618
     32 H           9.8602    2.3873    0.0000 H       1  UNL1        0.0618
     33 H          11.2632    1.5773    0.0000 H       1  UNL1        0.0618
     34 H           1.6879   -1.2278    0.0000 H       1  UNL1        0.0342
     35 H           1.4643   -2.0756    0.0000 H       1  UNL1        0.0342
     36 H           2.3121   -2.2992    0.0000 H       1  UNL1        0.0342
@<TRIPOS>BOND
     1     1     7   ar
     2     1     9   ar
     3     2     8    2
     4     3    13    1
     5     3    21    1
     6     4    21    2
     7     5     8   ar
     8     5     9   ar
     9     5    10    1
    10     6     7   ar
    11     6     8   ar
    12     6    11   ar
    13     7    12   ar
    14     9    14    1
    15    10    16   ar
    16    10    17   ar
    17    11    15   ar
    18    11    23    1
    19    12    13   ar
    20    12    24    1
    21    13    15   ar
    22    14    25    1
    23    14    26    1
    24    14    27    1
    25    15    28    1
    26    16    18   ar
    27    16    29    1
    28    17    19   ar
    29    17    30    1
    30    18    20   ar
    31    18    31    1
    32    19    20   ar
    33    19    32    1
    34    20    33    1
    35    21    22    1
    36    22    34    1
    37    22    35    1
    38    22    36    1
