@<TRIPOS>MOLECULE
IMPHY013655
 52 55 0 0 0
SMALL
GASTEIGER

@<TRIPOS>ATOM
      1 O           5.1350   -2.7819    0.0000 O.3     1  UNL1       -0.3313
      2 O           6.8671   -2.7819    0.0000 O.3     1  UNL1       -0.4606
      3 O           5.1350   -5.7819    0.0000 O.3     1  UNL1       -0.3864
      4 O           3.4030   -4.7819    0.0000 O.3     1  UNL1       -0.3865
      5 O           6.8671   -4.7819    0.0000 O.3     1  UNL1       -0.3829
      6 O           2.5369   -3.2819    0.0000 O.3     1  UNL1       -0.3924
      7 O           8.6230    0.2806    0.0000 O.2     1  UNL1       -0.4213
      8 O           5.1208    0.2973    0.0000 O.3     1  UNL1       -0.5058
      9 O           6.0308    1.7906    0.0000 O.3     1  UNL1       -0.5051
     10 O           9.4948    1.7773    0.0000 O.2     1  UNL1       -0.2444
     11 O           7.7782    5.7839    0.0000 O.3     1  UNL1       -0.5068
     12 C           5.1350   -4.7819    0.0000 C.3     1  UNL1        0.1152
     13 C           4.2690   -4.2819    0.0000 C.3     1  UNL1        0.1120
     14 C           6.0010   -4.2819    0.0000 C.3     1  UNL1        0.1454
     15 C           4.2690   -3.2819    0.0000 C.3     1  UNL1        0.1140
     16 C           6.0010   -3.2819    0.0000 C.3     1  UNL1        0.2308
     17 C           3.4030   -2.7819    0.0000 C.3     1  UNL1        0.0731
     18 C           6.8671   -1.7819    0.0000 C.ar    1  UNL1        0.1310
     19 C           7.7671   -1.2576    0.0000 C.ar    1  UNL1        0.0236
     20 C           5.9670   -1.2576    0.0000 C.ar    1  UNL1        0.0226
     21 C           7.7551   -0.2160    0.0000 C.ar    1  UNL1        0.1496
     22 C           6.8910    0.2873    0.0000 C.ar    1  UNL1        0.1011
     23 C           5.9790   -0.2160    0.0000 C.ar    1  UNL1        0.1345
     24 C           6.8948    1.2873    0.0000 C.ar    1  UNL1        0.1456
     25 C           7.7628    1.7840    0.0000 C.ar    1  UNL1        0.1086
     26 C           8.6269    1.2806    0.0000 C.ar    1  UNL1        0.3486
     27 C           7.7666    2.7840    0.0000 C.ar    1  UNL1       -0.0072
     28 C           6.9026    3.2873    0.0000 C.ar    1  UNL1       -0.0502
     29 C           8.6346    3.2806    0.0000 C.ar    1  UNL1       -0.0502
     30 C           6.9064    4.2873    0.0000 C.ar    1  UNL1       -0.0196
     31 C           8.6384    4.2806    0.0000 C.ar    1  UNL1       -0.0196
     32 C           7.7744    4.7840    0.0000 C.ar    1  UNL1        0.1169
     33 H           4.5981   -5.0919    0.0000 H       1  UNL1        0.0648
     34 H           4.2690   -4.9019    0.0000 H       1  UNL1        0.0647
     35 H           6.0010   -4.9019    0.0000 H       1  UNL1        0.0683
     36 H           4.2690   -2.6619    0.0000 H       1  UNL1        0.0647
     37 H           6.5380   -3.5919    0.0000 H       1  UNL1        0.1084
     38 H           3.8015   -2.3069    0.0000 H       1  UNL1        0.0584
     39 H           3.0044   -2.3069    0.0000 H       1  UNL1        0.0584
     40 H           4.5981   -6.0919    0.0000 H       1  UNL1        0.2100
     41 H           3.4030   -5.4019    0.0000 H       1  UNL1        0.2100
     42 H           6.8671   -5.4019    0.0000 H       1  UNL1        0.2102
     43 H           2.0000   -2.9719    0.0000 H       1  UNL1        0.2095
     44 H           8.3064   -1.5634    0.0000 H       1  UNL1        0.0691
     45 H           5.4277   -1.5634    0.0000 H       1  UNL1        0.0691
     46 H           4.5792   -0.0044    0.0000 H       1  UNL1        0.2922
     47 H           6.3644    2.9794    0.0000 H       1  UNL1        0.0625
     48 H           9.1703    2.9686    0.0000 H       1  UNL1        0.0625
     49 H           6.0331    2.4106    0.0000 H       1  UNL1        0.2922
     50 H           6.3707    4.5994    0.0000 H       1  UNL1        0.0654
     51 H           9.1766    4.5885    0.0000 H       1  UNL1        0.0654
     52 H           8.3163    6.0919    0.0000 H       1  UNL1        0.2921
@<TRIPOS>BOND
     1     1    15    1
     2     1    16    1
     3    16     2    1
     4     2    18    1
     5     3    12    1
     6     3    40    1
     7    13     4    1
     8     4    41    1
     9     5    14    1
    10     5    42    1
    11     6    17    1
    12     6    43    1
    13     7    21   ar
    14     7    26   ar
    15     8    23    1
    16     8    46    1
    17     9    24    1
    18     9    49    1
    19    10    26    2
    20    11    32    1
    21    11    52    1
    22    12    13    1
    23    12    14    1
    24    12    33    1
    25    13    15    1
    26    13    34    1
    27    14    16    1
    28    14    35    1
    29    15    17    1
    30    15    36    1
    31    16    37    1
    32    17    38    1
    33    17    39    1
    34    18    19   ar
    35    18    20   ar
    36    19    21   ar
    37    19    44    1
    38    20    23   ar
    39    20    45    1
    40    21    22   ar
    41    22    23   ar
    42    22    24   ar
    43    24    25   ar
    44    25    26   ar
    45    25    27    1
    46    27    28   ar
    47    27    29   ar
    48    28    30   ar
    49    28    47    1
    50    29    31   ar
    51    29    48    1
    52    30    32   ar
    53    30    50    1
    54    31    32   ar
    55    31    51    1
