@<TRIPOS>MOLECULE
IMPHY001590
 34 34 0 0 0
SMALL
GASTEIGER

@<TRIPOS>ATOM
      1 O           3.7320    0.6550    0.0000 O.3     1  UNL1       -0.4558
      2 O           2.0000    0.6550    0.0000 O.2     1  UNL1       -0.2450
      3 O           2.8660   -3.8450    0.0000 O.3     1  UNL1       -0.5068
      4 N           4.5981    3.1550    0.0000 N.4     1  UNL1        0.2393
      5 C           4.5981    2.1550    0.0000 C.3     1  UNL1        0.0042
      6 C           4.5981    4.1550    0.0000 C.3     1  UNL1       -0.0417
      7 C           5.5981    3.1550    0.0000 C.3     1  UNL1       -0.0417
      8 C           3.5981    3.1550    0.0000 C.3     1  UNL1       -0.0417
      9 C           3.7320    1.6550    0.0000 C.3     1  UNL1        0.1324
     10 C           2.8660    0.1550    0.0000 C.2     1  UNL1        0.3394
     11 C           2.8660   -0.8450    0.0000 C.ar    1  UNL1        0.0592
     12 C           2.0000   -1.3450    0.0000 C.ar    1  UNL1       -0.0443
     13 C           3.7320   -1.3450    0.0000 C.ar    1  UNL1       -0.0443
     14 C           2.0000   -2.3450    0.0000 C.ar    1  UNL1       -0.0194
     15 C           3.7320   -2.3450    0.0000 C.ar    1  UNL1       -0.0194
     16 C           2.8660   -2.8450    0.0000 C.ar    1  UNL1        0.1169
     17 H           4.8101    1.5724    0.0000 H       1  UNL1        0.0849
     18 H           5.2087    2.2627    0.0000 H       1  UNL1        0.0849
     19 H           3.5981    3.7750    0.0000 H       1  UNL1        0.0778
     20 H           5.2181    4.1550    0.0000 H       1  UNL1        0.0778
     21 H           4.5981    4.7750    0.0000 H       1  UNL1        0.0778
     22 H           3.9781    4.1550    0.0000 H       1  UNL1        0.0778
     23 H           5.5981    2.5350    0.0000 H       1  UNL1        0.0778
     24 H           6.2181    3.1550    0.0000 H       1  UNL1        0.0778
     25 H           5.5981    3.7750    0.0000 H       1  UNL1        0.0778
     26 H           2.9781    3.1550    0.0000 H       1  UNL1        0.0778
     27 H           3.5981    2.5350    0.0000 H       1  UNL1        0.0778
     28 H           3.5200    2.2376    0.0000 H       1  UNL1        0.0752
     29 H           3.1215    1.5473    0.0000 H       1  UNL1        0.0752
     30 H           1.4631   -1.0350    0.0000 H       1  UNL1        0.0627
     31 H           4.2690   -1.0350    0.0000 H       1  UNL1        0.0627
     32 H           1.4631   -2.6550    0.0000 H       1  UNL1        0.0654
     33 H           4.2690   -2.6550    0.0000 H       1  UNL1        0.0654
     34 H           2.3291   -4.1550    0.0000 H       1  UNL1        0.2921
@<TRIPOS>UNITY_ATOM_ATTR
4 1
charge 1
@<TRIPOS>BOND
     1     1     9    1
     2     1    10    1
     3     2    10    2
     4     3    16    1
     5     3    34    1
     6     4     5    1
     7     4     6    1
     8     4     7    1
     9     4     8    1
    10     5     9    1
    11     5    17    1
    12     5    18    1
    13     6    20    1
    14     6    21    1
    15     6    22    1
    16     7    23    1
    17     7    24    1
    18     7    25    1
    19     8    19    1
    20     8    26    1
    21     8    27    1
    22     9    28    1
    23     9    29    1
    24    10    11    1
    25    11    12   ar
    26    11    13   ar
    27    12    14   ar
    28    12    30    1
    29    13    15   ar
    30    13    31    1
    31    14    16   ar
    32    14    32    1
    33    15    16   ar
    34    15    33    1
