@<TRIPOS>MOLECULE
IMPHY012800
 164 163 0 0 0
SMALL
GASTEIGER

@<TRIPOS>ATOM
      1 O          22.7846    0.7500    0.0000 O.3     1  UNL1       -0.4646
      2 O          21.9186   -0.7500    0.0000 O.2     1  UNL1       -0.2509
      3 C          35.7750    0.2500    0.0000 C.3     1  UNL1       -0.0531
      4 C          34.9090    0.7500    0.0000 C.3     1  UNL1       -0.0531
      5 C          36.6410    0.7500    0.0000 C.3     1  UNL1       -0.0531
      6 C          34.0429    0.2500    0.0000 C.3     1  UNL1       -0.0531
      7 C          37.5070    0.2500    0.0000 C.3     1  UNL1       -0.0531
      8 C          33.1769    0.7500    0.0000 C.3     1  UNL1       -0.0531
      9 C          38.3731    0.7500    0.0000 C.3     1  UNL1       -0.0531
     10 C          32.3109    0.2500    0.0000 C.3     1  UNL1       -0.0531
     11 C          39.2391    0.2500    0.0000 C.3     1  UNL1       -0.0531
     12 C          31.4449    0.7500    0.0000 C.3     1  UNL1       -0.0531
     13 C          40.1051    0.7500    0.0000 C.3     1  UNL1       -0.0531
     14 C          30.5788    0.2500    0.0000 C.3     1  UNL1       -0.0531
     15 C          40.9711    0.2500    0.0000 C.3     1  UNL1       -0.0531
     16 C          12.3923    0.7500    0.0000 C.3     1  UNL1       -0.0531
     17 C          11.5263    0.2500    0.0000 C.3     1  UNL1       -0.0531
     18 C          13.2583    0.2500    0.0000 C.3     1  UNL1       -0.0531
     19 C          10.6603    0.7500    0.0000 C.3     1  UNL1       -0.0531
     20 C          29.7128    0.7500    0.0000 C.3     1  UNL1       -0.0531
     21 C          41.8372    0.7500    0.0000 C.3     1  UNL1       -0.0531
     22 C          14.1244    0.7500    0.0000 C.3     1  UNL1       -0.0531
     23 C           9.7942    0.2500    0.0000 C.3     1  UNL1       -0.0531
     24 C          14.9904    0.2500    0.0000 C.3     1  UNL1       -0.0531
     25 C           8.9282    0.7500    0.0000 C.3     1  UNL1       -0.0531
     26 C          28.8468    0.2500    0.0000 C.3     1  UNL1       -0.0531
     27 C          42.7032    0.2500    0.0000 C.3     1  UNL1       -0.0531
     28 C          15.8564    0.7500    0.0000 C.3     1  UNL1       -0.0531
     29 C           8.0622    0.2500    0.0000 C.3     1  UNL1       -0.0531
     30 C          27.9808    0.7500    0.0000 C.3     1  UNL1       -0.0531
     31 C          43.5692    0.7500    0.0000 C.3     1  UNL1       -0.0531
     32 C          16.7224    0.2500    0.0000 C.3     1  UNL1       -0.0531
     33 C           7.1962    0.7500    0.0000 C.3     1  UNL1       -0.0531
     34 C          27.1147    0.2500    0.0000 C.3     1  UNL1       -0.0531
     35 C          17.5885    0.7500    0.0000 C.3     1  UNL1       -0.0531
     36 C          44.4352    0.2500    0.0000 C.3     1  UNL1       -0.0531
     37 C           6.3301    0.2500    0.0000 C.3     1  UNL1       -0.0531
     38 C          18.4545    0.2500    0.0000 C.3     1  UNL1       -0.0530
     39 C          26.2487    0.7500    0.0000 C.3     1  UNL1       -0.0530
     40 C          45.3013    0.7500    0.0000 C.3     1  UNL1       -0.0531
     41 C           5.4641    0.7500    0.0000 C.3     1  UNL1       -0.0531
     42 C          19.3205    0.7500    0.0000 C.3     1  UNL1       -0.0526
     43 C          25.3827    0.2500    0.0000 C.3     1  UNL1       -0.0500
     44 C          46.1673    0.2500    0.0000 C.3     1  UNL1       -0.0531
     45 C           4.5981    0.2500    0.0000 C.3     1  UNL1       -0.0531
     46 C          20.1865    0.2500    0.0000 C.3     1  UNL1       -0.0430
     47 C          24.5167    0.7500    0.0000 C.3     1  UNL1       -0.0185
     48 C          47.0333    0.7500    0.0000 C.3     1  UNL1       -0.0533
     49 C           3.7320    0.7500    0.0000 C.3     1  UNL1       -0.0533
     50 C          21.0526    0.7500    0.0000 C.3     1  UNL1        0.0449
     51 C          23.6506    0.2500    0.0000 C.3     1  UNL1        0.0925
     52 C          47.8993    0.2500    0.0000 C.3     1  UNL1       -0.0559
     53 C           2.8660    0.2500    0.0000 C.3     1  UNL1       -0.0559
     54 C          21.9186    0.2500    0.0000 C.2     1  UNL1        0.3071
     55 C          48.7654    0.7500    0.0000 C.3     1  UNL1       -0.0653
     56 C           2.0000    0.7500    0.0000 C.3     1  UNL1       -0.0653
     57 H          35.3765   -0.2249    0.0000 H       1  UNL1        0.0265
     58 H          36.1735   -0.2249    0.0000 H       1  UNL1        0.0265
     59 H          35.3075    1.2250    0.0000 H       1  UNL1        0.0265
     60 H          34.5104    1.2250    0.0000 H       1  UNL1        0.0265
     61 H          37.0395    1.2250    0.0000 H       1  UNL1        0.0265
     62 H          36.2425    1.2250    0.0000 H       1  UNL1        0.0265
     63 H          33.6444   -0.2249    0.0000 H       1  UNL1        0.0265
     64 H          34.4415   -0.2249    0.0000 H       1  UNL1        0.0265
     65 H          37.1085   -0.2249    0.0000 H       1  UNL1        0.0265
     66 H          37.9056   -0.2249    0.0000 H       1  UNL1        0.0265
     67 H          33.5754    1.2250    0.0000 H       1  UNL1        0.0265
     68 H          32.7784    1.2250    0.0000 H       1  UNL1        0.0265
     69 H          38.7716    1.2250    0.0000 H       1  UNL1        0.0265
     70 H          37.9745    1.2250    0.0000 H       1  UNL1        0.0265
     71 H          31.9124   -0.2249    0.0000 H       1  UNL1        0.0265
     72 H          32.7094   -0.2249    0.0000 H       1  UNL1        0.0265
     73 H          38.8406   -0.2249    0.0000 H       1  UNL1        0.0265
     74 H          39.6376   -0.2249    0.0000 H       1  UNL1        0.0265
     75 H          31.8434    1.2250    0.0000 H       1  UNL1        0.0265
     76 H          31.0463    1.2250    0.0000 H       1  UNL1        0.0265
     77 H          40.5036    1.2250    0.0000 H       1  UNL1        0.0265
     78 H          39.7066    1.2250    0.0000 H       1  UNL1        0.0265
     79 H          30.1803   -0.2249    0.0000 H       1  UNL1        0.0265
     80 H          30.9774   -0.2249    0.0000 H       1  UNL1        0.0265
     81 H          40.5726   -0.2249    0.0000 H       1  UNL1        0.0265
     82 H          41.3697   -0.2249    0.0000 H       1  UNL1        0.0265
     83 H          12.7908    1.2250    0.0000 H       1  UNL1        0.0265
     84 H          11.9938    1.2250    0.0000 H       1  UNL1        0.0265
     85 H          11.1278   -0.2249    0.0000 H       1  UNL1        0.0265
     86 H          11.9248   -0.2249    0.0000 H       1  UNL1        0.0265
     87 H          12.8598   -0.2249    0.0000 H       1  UNL1        0.0265
     88 H          13.6569   -0.2249    0.0000 H       1  UNL1        0.0265
     89 H          11.0588    1.2250    0.0000 H       1  UNL1        0.0265
     90 H          10.2617    1.2250    0.0000 H       1  UNL1        0.0265
     91 H          30.1113    1.2250    0.0000 H       1  UNL1        0.0265
     92 H          29.3143    1.2250    0.0000 H       1  UNL1        0.0265
     93 H          42.2357    1.2250    0.0000 H       1  UNL1        0.0265
     94 H          41.4386    1.2250    0.0000 H       1  UNL1        0.0265
     95 H          14.5229    1.2250    0.0000 H       1  UNL1        0.0265
     96 H          13.7258    1.2250    0.0000 H       1  UNL1        0.0265
     97 H           9.3957   -0.2249    0.0000 H       1  UNL1        0.0265
     98 H          10.1928   -0.2249    0.0000 H       1  UNL1        0.0265
     99 H          14.5919   -0.2249    0.0000 H       1  UNL1        0.0265
    100 H          15.3889   -0.2249    0.0000 H       1  UNL1        0.0265
    101 H           9.3267    1.2250    0.0000 H       1  UNL1        0.0265
    102 H           8.5297    1.2250    0.0000 H       1  UNL1        0.0265
    103 H          28.4483   -0.2249    0.0000 H       1  UNL1        0.0265
    104 H          29.2453   -0.2249    0.0000 H       1  UNL1        0.0265
    105 H          42.3047   -0.2249    0.0000 H       1  UNL1        0.0265
    106 H          43.1017   -0.2249    0.0000 H       1  UNL1        0.0265
    107 H          16.2549    1.2250    0.0000 H       1  UNL1        0.0265
    108 H          15.4579    1.2250    0.0000 H       1  UNL1        0.0265
    109 H           7.6636   -0.2249    0.0000 H       1  UNL1        0.0265
    110 H           8.4607   -0.2249    0.0000 H       1  UNL1        0.0265
    111 H          28.3793    1.2250    0.0000 H       1  UNL1        0.0265
    112 H          27.5822    1.2250    0.0000 H       1  UNL1        0.0265
    113 H          43.9677    1.2250    0.0000 H       1  UNL1        0.0265
    114 H          43.1707    1.2250    0.0000 H       1  UNL1        0.0265
    115 H          16.3239   -0.2249    0.0000 H       1  UNL1        0.0265
    116 H          17.1210   -0.2249    0.0000 H       1  UNL1        0.0265
    117 H           7.5947    1.2250    0.0000 H       1  UNL1        0.0265
    118 H           6.7976    1.2250    0.0000 H       1  UNL1        0.0265
    119 H          26.7162   -0.2249    0.0000 H       1  UNL1        0.0265
    120 H          27.5133   -0.2249    0.0000 H       1  UNL1        0.0265
    121 H          17.9870    1.2250    0.0000 H       1  UNL1        0.0265
    122 H          17.1899    1.2250    0.0000 H       1  UNL1        0.0265
    123 H          44.0367   -0.2249    0.0000 H       1  UNL1        0.0265
    124 H          44.8338   -0.2249    0.0000 H       1  UNL1        0.0265
    125 H           5.9316   -0.2249    0.0000 H       1  UNL1        0.0265
    126 H           6.7287   -0.2249    0.0000 H       1  UNL1        0.0265
    127 H          18.0560   -0.2249    0.0000 H       1  UNL1        0.0265
    128 H          18.8530   -0.2249    0.0000 H       1  UNL1        0.0265
    129 H          26.6472    1.2250    0.0000 H       1  UNL1        0.0265
    130 H          25.8502    1.2250    0.0000 H       1  UNL1        0.0265
    131 H          45.6998    1.2250    0.0000 H       1  UNL1        0.0265
    132 H          44.9027    1.2250    0.0000 H       1  UNL1        0.0265
    133 H           5.8626    1.2250    0.0000 H       1  UNL1        0.0265
    134 H           5.0656    1.2250    0.0000 H       1  UNL1        0.0265
    135 H          19.7190    1.2250    0.0000 H       1  UNL1        0.0265
    136 H          18.9220    1.2250    0.0000 H       1  UNL1        0.0265
    137 H          24.9842   -0.2249    0.0000 H       1  UNL1        0.0266
    138 H          25.7812   -0.2249    0.0000 H       1  UNL1        0.0266
    139 H          45.7688   -0.2249    0.0000 H       1  UNL1        0.0265
    140 H          46.5658   -0.2249    0.0000 H       1  UNL1        0.0265
    141 H           4.1996   -0.2249    0.0000 H       1  UNL1        0.0265
    142 H           4.9966   -0.2249    0.0000 H       1  UNL1        0.0265
    143 H          19.7880   -0.2249    0.0000 H       1  UNL1        0.0270
    144 H          20.5851   -0.2249    0.0000 H       1  UNL1        0.0270
    145 H          24.9152    1.2250    0.0000 H       1  UNL1        0.0298
    146 H          24.1181    1.2250    0.0000 H       1  UNL1        0.0298
    147 H          47.4319    1.2250    0.0000 H       1  UNL1        0.0265
    148 H          46.6348    1.2250    0.0000 H       1  UNL1        0.0265
    149 H           4.1306    1.2250    0.0000 H       1  UNL1        0.0265
    150 H           3.3335    1.2250    0.0000 H       1  UNL1        0.0265
    151 H          21.4511    1.2250    0.0000 H       1  UNL1        0.0377
    152 H          20.6540    1.2250    0.0000 H       1  UNL1        0.0377
    153 H          23.2521   -0.2249    0.0000 H       1  UNL1        0.0697
    154 H          24.0492   -0.2249    0.0000 H       1  UNL1        0.0697
    155 H          47.5008   -0.2249    0.0000 H       1  UNL1        0.0263
    156 H          48.2979   -0.2249    0.0000 H       1  UNL1        0.0263
    157 H           2.4675   -0.2249    0.0000 H       1  UNL1        0.0263
    158 H           3.2646   -0.2249    0.0000 H       1  UNL1        0.0263
    159 H          49.0754    0.2131    0.0000 H       1  UNL1        0.0230
    160 H          49.3023    1.0600    0.0000 H       1  UNL1        0.0230
    161 H          48.4554    1.2869    0.0000 H       1  UNL1        0.0230
    162 H           2.3100    1.2869    0.0000 H       1  UNL1        0.0230
    163 H           1.4631    1.0600    0.0000 H       1  UNL1        0.0230
    164 H           1.6900    0.2131    0.0000 H       1  UNL1        0.0230
@<TRIPOS>BOND
     1     1    51    1
     2     1    54    1
     3     2    54    2
     4     3     4    1
     5     3     5    1
     6     3    57    1
     7     3    58    1
     8     4     6    1
     9     4    59    1
    10     4    60    1
    11     5     7    1
    12     5    61    1
    13     5    62    1
    14     6     8    1
    15     6    63    1
    16     6    64    1
    17     7     9    1
    18     7    65    1
    19     7    66    1
    20     8    10    1
    21     8    67    1
    22     8    68    1
    23     9    11    1
    24     9    69    1
    25     9    70    1
    26    10    12    1
    27    10    71    1
    28    10    72    1
    29    11    13    1
    30    11    73    1
    31    11    74    1
    32    12    14    1
    33    12    75    1
    34    12    76    1
    35    13    15    1
    36    13    77    1
    37    13    78    1
    38    14    20    1
    39    14    79    1
    40    14    80    1
    41    15    21    1
    42    15    81    1
    43    15    82    1
    44    16    17    1
    45    16    18    1
    46    16    83    1
    47    16    84    1
    48    17    19    1
    49    17    85    1
    50    17    86    1
    51    18    22    1
    52    18    87    1
    53    18    88    1
    54    19    23    1
    55    19    89    1
    56    19    90    1
    57    20    26    1
    58    20    91    1
    59    20    92    1
    60    21    27    1
    61    21    93    1
    62    21    94    1
    63    22    24    1
    64    22    95    1
    65    22    96    1
    66    23    25    1
    67    23    97    1
    68    23    98    1
    69    24    28    1
    70    24    99    1
    71    24   100    1
    72    25    29    1
    73    25   101    1
    74    25   102    1
    75    26    30    1
    76    26   103    1
    77    26   104    1
    78    27    31    1
    79    27   105    1
    80    27   106    1
    81    28    32    1
    82    28   107    1
    83    28   108    1
    84    29    33    1
    85    29   109    1
    86    29   110    1
    87    30    34    1
    88    30   111    1
    89    30   112    1
    90    31    36    1
    91    31   113    1
    92    31   114    1
    93    32    35    1
    94    32   115    1
    95    32   116    1
    96    33    37    1
    97    33   117    1
    98    33   118    1
    99    34    39    1
   100    34   119    1
   101    34   120    1
   102    35    38    1
   103    35   121    1
   104    35   122    1
   105    36    40    1
   106    36   123    1
   107    36   124    1
   108    37    41    1
   109    37   125    1
   110    37   126    1
   111    38    42    1
   112    38   127    1
   113    38   128    1
   114    39    43    1
   115    39   129    1
   116    39   130    1
   117    40    44    1
   118    40   131    1
   119    40   132    1
   120    41    45    1
   121    41   133    1
   122    41   134    1
   123    42    46    1
   124    42   135    1
   125    42   136    1
   126    43    47    1
   127    43   137    1
   128    43   138    1
   129    44    48    1
   130    44   139    1
   131    44   140    1
   132    45    49    1
   133    45   141    1
   134    45   142    1
   135    46    50    1
   136    46   143    1
   137    46   144    1
   138    47    51    1
   139    47   145    1
   140    47   146    1
   141    48    52    1
   142    48   147    1
   143    48   148    1
   144    49    53    1
   145    49   149    1
   146    49   150    1
   147    50    54    1
   148    50   151    1
   149    50   152    1
   150    51   153    1
   151    51   154    1
   152    52    55    1
   153    52   155    1
   154    52   156    1
   155    53    56    1
   156    53   157    1
   157    53   158    1
   158    55   159    1
   159    55   160    1
   160    55   161    1
   161    56   162    1
   162    56   163    1
   163    56   164    1
