@<TRIPOS>MOLECULE
IMPHY008434
 81 85 0 0 0
SMALL
GASTEIGER

@<TRIPOS>ATOM
      1 O           2.9755    0.4198    0.0000 O.2     1  UNL1       -0.2968
      2 C           6.5251   -0.6372    0.0000 C.3     1  UNL1       -0.0233
      3 C           5.6591   -1.1372    0.0000 C.3     1  UNL1       -0.0227
      4 C           6.5251    0.3628    0.0000 C.3     1  UNL1       -0.0315
      5 C           4.7931   -0.6372    0.0000 C.3     1  UNL1       -0.0228
      6 C           7.4191    0.8974    0.0000 C.3     1  UNL1       -0.0292
      7 C           8.3252    0.3836    0.0000 C.3     1  UNL1       -0.0287
      8 C           3.8831   -1.1441    0.0000 C.3     1  UNL1        0.0328
      9 C           7.4191   -1.1719    0.0000 C.3     1  UNL1       -0.0464
     10 C           5.6591    0.8628    0.0000 C.3     1  UNL1       -0.0491
     11 C           4.7931    0.3628    0.0000 C.3     1  UNL1       -0.0485
     12 C           5.6752   -2.1788    0.0000 C.3     1  UNL1       -0.0465
     13 C           3.8751   -2.1857    0.0000 C.3     1  UNL1       -0.0235
     14 C           7.6292    1.9113    0.0000 C.3     1  UNL1       -0.0351
     15 C           8.3252   -0.6581    0.0000 C.3     1  UNL1       -0.0468
     16 C           9.0875    1.0843    0.0000 C.3     1  UNL1       -0.0471
     17 C           4.7771   -2.7065    0.0000 C.3     1  UNL1       -0.0483
     18 C           6.8672   -1.5769    0.0000 C.3     1  UNL1       -0.0588
     19 C           8.6582    2.0266    0.0000 C.3     1  UNL1       -0.0492
     20 C           6.3019   -1.9033    0.0000 C.3     1  UNL1       -0.0588
     21 C           2.9396   -2.7354    0.0000 C.3     1  UNL1       -0.0308
     22 C           9.1950   -0.1097    0.0000 C.3     1  UNL1       -0.0593
     23 C           2.9562   -0.5800    0.0000 C.2     1  UNL1        0.1398
     24 C           6.9556    2.6505    0.0000 C.3     1  UNL1       -0.0436
     25 C           3.8908   -0.1441    0.0000 C.3     1  UNL1       -0.0523
     26 C           2.0000   -2.1929    0.0000 C.3     1  UNL1       -0.0409
     27 C           2.0084   -1.1080    0.0000 C.3     1  UNL1        0.0069
     28 C           2.4430   -3.6034    0.0000 C.3     1  UNL1       -0.0595
     29 C           3.4430   -3.5995    0.0000 C.3     1  UNL1       -0.0595
     30 C           7.2590    3.6034    0.0000 C.3     1  UNL1       -0.0624
     31 C           5.9787    2.4367    0.0000 C.3     1  UNL1       -0.0624
     32 H           6.5204    0.9827    0.0000 H       1  UNL1        0.0309
     33 H           5.3300   -0.3272    0.0000 H       1  UNL1        0.0316
     34 H           6.9138    1.2567    0.0000 H       1  UNL1        0.0312
     35 H           7.0145   -1.6417    0.0000 H       1  UNL1        0.0271
     36 H           7.8127   -1.6509    0.0000 H       1  UNL1        0.0271
     37 H           6.0576    1.3377    0.0000 H       1  UNL1        0.0268
     38 H           5.2606    1.3377    0.0000 H       1  UNL1        0.0268
     39 H           4.5810    0.9454    0.0000 H       1  UNL1        0.0268
     40 H           4.1825    0.2551    0.0000 H       1  UNL1        0.0268
     41 H           5.8932   -2.7592    0.0000 H       1  UNL1        0.0271
     42 H           6.2843   -2.0632    0.0000 H       1  UNL1        0.0271
     43 H           3.8774   -2.8057    0.0000 H       1  UNL1        0.0315
     44 H           7.8477    2.4916    0.0000 H       1  UNL1        0.0306
     45 H           8.5342   -1.2418    0.0000 H       1  UNL1        0.0271
     46 H           8.9360   -0.5520    0.0000 H       1  UNL1        0.0271
     47 H           9.4568    0.5863    0.0000 H       1  UNL1        0.0271
     48 H           9.6215    1.3992    0.0000 H       1  UNL1        0.0271
     49 H           4.3798   -3.1825    0.0000 H       1  UNL1        0.0269
     50 H           5.1781   -3.1794    0.0000 H       1  UNL1        0.0269
     51 H           6.2847   -1.7890    0.0000 H       1  UNL1        0.0235
     52 H           7.0794   -2.1595    0.0000 H       1  UNL1        0.0235
     53 H           7.4498   -1.3648    0.0000 H       1  UNL1        0.0235
     54 H           9.2463    2.2229    0.0000 H       1  UNL1        0.0268
     55 H           8.5248    2.6321    0.0000 H       1  UNL1        0.0268
     56 H           5.8270   -2.3018    0.0000 H       1  UNL1        0.0235
     57 H           6.7004   -2.3782    0.0000 H       1  UNL1        0.0235
     58 H           6.7768   -1.5048    0.0000 H       1  UNL1        0.0235
     59 H           8.8892   -0.6490    0.0000 H       1  UNL1        0.0235
     60 H           9.7343   -0.4156    0.0000 H       1  UNL1        0.0235
     61 H           9.5008    0.4296    0.0000 H       1  UNL1        0.0235
     62 H           6.5380    3.1087    0.0000 H       1  UNL1        0.0298
     63 H           4.5108   -0.1489    0.0000 H       1  UNL1        0.0239
     64 H           3.8956    0.4759    0.0000 H       1  UNL1        0.0239
     65 H           3.2708   -0.1393    0.0000 H       1  UNL1        0.0239
     66 H           1.3900   -2.0821    0.0000 H       1  UNL1        0.0275
     67 H           1.7864   -2.7750    0.0000 H       1  UNL1        0.0275
     68 H           1.8038   -0.5227    0.0000 H       1  UNL1        0.0342
     69 H           1.3967   -1.2093    0.0000 H       1  UNL1        0.0342
     70 H           1.9048   -3.2954    0.0000 H       1  UNL1        0.0235
     71 H           2.1350   -4.1415    0.0000 H       1  UNL1        0.0235
     72 H           2.9811   -3.9113    0.0000 H       1  UNL1        0.0235
     73 H           2.9072   -3.9116    0.0000 H       1  UNL1        0.0235
     74 H           3.7550   -4.1352    0.0000 H       1  UNL1        0.0235
     75 H           3.9787   -3.2874    0.0000 H       1  UNL1        0.0235
     76 H           7.8497    3.4153    0.0000 H       1  UNL1        0.0232
     77 H           7.4470    4.1941    0.0000 H       1  UNL1        0.0232
     78 H           6.6682    3.7914    0.0000 H       1  UNL1        0.0232
     79 H           5.8462    3.0424    0.0000 H       1  UNL1        0.0232
     80 H           5.3731    2.3042    0.0000 H       1  UNL1        0.0232
     81 H           6.1113    1.8310    0.0000 H       1  UNL1        0.0232
@<TRIPOS>BOND
     1     1    23    2
     2     2     3    1
     3     2     4    1
     4     2     9    1
     5     2    18    1
     6     3     5    1
     7     3    12    1
     8     3    20    1
     9     4     6    1
    10     4    10    1
    11     4    32    1
    12     5     8    1
    13     5    11    1
    14     5    33    1
    15     6     7    1
    16     6    14    1
    17     6    34    1
    18     7    15    1
    19     7    16    1
    20     7    22    1
    21     8    13    1
    22     8    23    1
    23     8    25    1
    24     9    15    1
    25     9    35    1
    26     9    36    1
    27    10    11    1
    28    10    37    1
    29    10    38    1
    30    11    39    1
    31    11    40    1
    32    12    17    1
    33    12    41    1
    34    12    42    1
    35    13    17    1
    36    13    21    1
    37    13    43    1
    38    14    19    1
    39    14    24    1
    40    14    44    1
    41    15    45    1
    42    15    46    1
    43    16    19    1
    44    16    47    1
    45    16    48    1
    46    17    49    1
    47    17    50    1
    48    18    51    1
    49    18    52    1
    50    18    53    1
    51    19    54    1
    52    19    55    1
    53    20    56    1
    54    20    57    1
    55    20    58    1
    56    21    26    1
    57    21    28    1
    58    21    29    1
    59    22    59    1
    60    22    60    1
    61    22    61    1
    62    23    27    1
    63    24    30    1
    64    24    31    1
    65    24    62    1
    66    25    63    1
    67    25    64    1
    68    25    65    1
    69    26    27    1
    70    26    66    1
    71    26    67    1
    72    27    68    1
    73    27    69    1
    74    28    70    1
    75    28    71    1
    76    28    72    1
    77    29    73    1
    78    29    74    1
    79    29    75    1
    80    30    76    1
    81    30    77    1
    82    30    78    1
    83    31    79    1
    84    31    80    1
    85    31    81    1
