@<TRIPOS>MOLECULE
IMPHY013389
 74 78 0 0 0
SMALL
GASTEIGER

@<TRIPOS>ATOM
      1 O           8.0966   -0.8810    0.0000 O.3     1  UNL1       -0.3313
      2 O           5.4985   -3.3810    0.0000 O.3     1  UNL1       -0.3431
      3 O           7.2306   -3.3810    0.0000 O.3     1  UNL1       -0.3461
      4 O           8.9626   -3.3810    0.0000 O.3     1  UNL1       -0.3865
      5 O          10.6947   -2.3810    0.0000 O.3     1  UNL1       -0.3864
      6 O           8.9626    0.6190    0.0000 O.3     1  UNL1       -0.4606
      7 O          10.6947   -0.3810    0.0000 O.3     1  UNL1       -0.3829
      8 O           7.2306   -5.3810    0.0000 O.3     1  UNL1       -0.3841
      9 O           5.4985   -6.3810    0.0000 O.3     1  UNL1       -0.3864
     10 O           3.7665   -5.3810    0.0000 O.3     1  UNL1       -0.3866
     11 O           7.1884    3.6710    0.0000 O.2     1  UNL1       -0.4618
     12 O           5.4229    0.6463    0.0000 O.3     1  UNL1       -0.5058
     13 O           4.5846    2.1810    0.0000 O.2     1  UNL1       -0.2863
     14 O           2.0000    5.6910    0.0000 O.3     1  UNL1       -0.4951
     15 C           8.0966   -1.8810    0.0000 C.3     1  UNL1        0.1144
     16 C           8.9626   -2.3810    0.0000 C.3     1  UNL1        0.1120
     17 C           9.8287   -1.8810    0.0000 C.3     1  UNL1        0.1152
     18 C           9.8287   -0.8810    0.0000 C.3     1  UNL1        0.1454
     19 C           6.3646   -4.8810    0.0000 C.3     1  UNL1        0.1341
     20 C           6.3646   -3.8810    0.0000 C.3     1  UNL1        0.1879
     21 C           5.4985   -5.3810    0.0000 C.3     1  UNL1        0.1140
     22 C           4.6325   -4.8810    0.0000 C.3     1  UNL1        0.1095
     23 C           8.9626   -0.3810    0.0000 C.3     1  UNL1        0.2308
     24 C           4.6325   -3.8810    0.0000 C.3     1  UNL1        0.0873
     25 C           7.2306   -2.3810    0.0000 C.3     1  UNL1        0.0796
     26 C           3.7665   -3.3810    0.0000 C.3     1  UNL1       -0.0361
     27 C           8.0966    1.1190    0.0000 C.ar    1  UNL1        0.1310
     28 C           8.0926    2.1606    0.0000 C.ar    1  UNL1        0.0234
     29 C           7.1925    0.6017    0.0000 C.ar    1  UNL1        0.0226
     30 C           7.1846    2.6710    0.0000 C.ar    1  UNL1        0.1454
     31 C           6.2965    1.1329    0.0000 C.ar    1  UNL1        0.1347
     32 C           6.3166    2.1743    0.0000 C.ar    1  UNL1        0.1060
     33 C           5.4525    2.6777    0.0000 C.ar    1  UNL1        0.2037
     34 C           5.4564    3.6777    0.0000 C.ar    1  UNL1        0.0644
     35 C           6.3243    4.1743    0.0000 C.ar    1  UNL1        0.1038
     36 C           4.5923    4.1810    0.0000 C.ar    1  UNL1       -0.0110
     37 C           3.7243    3.6843    0.0000 C.ar    1  UNL1       -0.0504
     38 C           4.5961    5.1810    0.0000 C.ar    1  UNL1       -0.0504
     39 C           2.8602    4.1877    0.0000 C.ar    1  UNL1       -0.0194
     40 C           3.7320    5.6843    0.0000 C.ar    1  UNL1       -0.0194
     41 C           2.8641    5.1877    0.0000 C.ar    1  UNL1        0.1201
     42 C           2.0038    6.6910    0.0000 C.3     1  UNL1        0.0788
     43 H           7.5597   -1.5710    0.0000 H       1  UNL1        0.0647
     44 H           8.4257   -2.6910    0.0000 H       1  UNL1        0.0647
     45 H           9.8287   -2.5010    0.0000 H       1  UNL1        0.0648
     46 H          10.3656   -1.1910    0.0000 H       1  UNL1        0.0683
     47 H           6.3646   -5.5010    0.0000 H       1  UNL1        0.0671
     48 H           6.3646   -3.2610    0.0000 H       1  UNL1        0.0937
     49 H           4.9616   -5.6910    0.0000 H       1  UNL1        0.0648
     50 H           4.6325   -5.5010    0.0000 H       1  UNL1        0.0646
     51 H           8.4257   -0.0710    0.0000 H       1  UNL1        0.1084
     52 H           4.6325   -3.2610    0.0000 H       1  UNL1        0.0621
     53 H           7.0185   -1.7984    0.0000 H       1  UNL1        0.0587
     54 H           6.6200   -2.4886    0.0000 H       1  UNL1        0.0587
     55 H           4.0765   -2.8441    0.0000 H       1  UNL1        0.0255
     56 H           3.2295   -3.0710    0.0000 H       1  UNL1        0.0255
     57 H           3.4565   -3.9179    0.0000 H       1  UNL1        0.0255
     58 H           9.4996   -3.6910    0.0000 H       1  UNL1        0.2100
     59 H          11.2316   -2.0710    0.0000 H       1  UNL1        0.2100
     60 H          10.6947    0.2390    0.0000 H       1  UNL1        0.2102
     61 H           7.7675   -5.0710    0.0000 H       1  UNL1        0.2101
     62 H           4.9616   -6.6910    0.0000 H       1  UNL1        0.2100
     63 H           3.2295   -5.0710    0.0000 H       1  UNL1        0.2100
     64 H           8.6271    2.4748    0.0000 H       1  UNL1        0.0691
     65 H           7.1878   -0.0183    0.0000 H       1  UNL1        0.0691
     66 H           6.3267    4.7943    0.0000 H       1  UNL1        0.1037
     67 H           5.4133    0.0264    0.0000 H       1  UNL1        0.2922
     68 H           3.7219    3.0643    0.0000 H       1  UNL1        0.0625
     69 H           5.1343    5.4889    0.0000 H       1  UNL1        0.0625
     70 H           2.3221    3.8797    0.0000 H       1  UNL1        0.0654
     71 H           3.7344    6.3043    0.0000 H       1  UNL1        0.0654
     72 H           2.6238    6.6886    0.0000 H       1  UNL1        0.0660
     73 H           2.0062    7.3110    0.0000 H       1  UNL1        0.0660
     74 H           1.3839    6.6934    0.0000 H       1  UNL1        0.0660
@<TRIPOS>BOND
     1     1    15    1
     2     1    23    1
     3     2    20    1
     4     2    24    1
     5    20     3    1
     6     3    25    1
     7    16     4    1
     8     4    58    1
     9    17     5    1
    10     5    59    1
    11    23     6    1
    12     6    27    1
    13     7    18    1
    14     7    60    1
    15    19     8    1
    16     8    61    1
    17     9    21    1
    18     9    62    1
    19    22    10    1
    20    10    63    1
    21    11    30   ar
    22    11    35   ar
    23    12    31    1
    24    12    67    1
    25    13    33    2
    26    14    41    1
    27    14    42    1
    28    15    16    1
    29    15    25    1
    30    15    43    1
    31    16    17    1
    32    16    44    1
    33    17    18    1
    34    17    45    1
    35    18    23    1
    36    18    46    1
    37    19    20    1
    38    19    21    1
    39    19    47    1
    40    20    48    1
    41    21    22    1
    42    21    49    1
    43    22    24    1
    44    22    50    1
    45    23    51    1
    46    24    26    1
    47    24    52    1
    48    25    53    1
    49    25    54    1
    50    26    55    1
    51    26    56    1
    52    26    57    1
    53    27    28   ar
    54    27    29   ar
    55    28    30   ar
    56    28    64    1
    57    29    31   ar
    58    29    65    1
    59    30    32   ar
    60    31    32   ar
    61    32    33   ar
    62    33    34   ar
    63    34    35   ar
    64    34    36    1
    65    35    66    1
    66    36    37   ar
    67    36    38   ar
    68    37    39   ar
    69    37    68    1
    70    38    40   ar
    71    38    69    1
    72    39    41   ar
    73    39    70    1
    74    40    41   ar
    75    40    71    1
    76    42    72    1
    77    42    73    1
    78    42    74    1
