@<TRIPOS>MOLECULE
IMPHY011733
 49 52 0 0 0
SMALL
GASTEIGER

@<TRIPOS>ATOM
      1 O           5.0929   -1.4269    0.0000 O.3     1  UNL1       -0.3313
      2 O           6.8530   -1.7056    0.0000 O.3     1  UNL1       -0.4532
      3 O           4.0051   -3.7747    0.0000 O.3     1  UNL1       -0.3864
      4 O           6.1807   -3.7747    0.0000 O.3     1  UNL1       -0.3829
      5 O           2.5896   -2.3748    0.0000 O.3     1  UNL1       -0.3924
      6 O           8.2198    0.5597    0.0000 O.2     1  UNL1       -0.4507
      7 O           5.3667   -0.3674    0.0000 O.2     1  UNL1       -0.2830
      8 O           4.7935    1.2848    0.0000 O.3     1  UNL1       -0.5058
      9 O           7.1519    3.9245    0.0000 O.3     1  UNL1       -0.5065
     10 O          11.4003   -1.1387    0.0000 O.3     1  UNL1       -0.5033
     11 O          10.9845   -3.0950    0.0000 O.3     1  UNL1       -0.5033
     12 C           4.5929   -2.9657    0.0000 C.3     1  UNL1        0.1152
     13 C           5.5929   -2.9657    0.0000 C.3     1  UNL1        0.1454
     14 C           4.2839   -2.0146    0.0000 C.3     1  UNL1        0.1141
     15 C           5.9019   -2.0146    0.0000 C.3     1  UNL1        0.2311
     16 C           3.3328   -1.7056    0.0000 C.3     1  UNL1        0.0731
     17 C           7.0609   -0.7275    0.0000 C.ar    1  UNL1        0.2138
     18 C           8.0119   -0.4185    0.0000 C.ar    1  UNL1        0.1810
     19 C           6.3177   -0.0584    0.0000 C.ar    1  UNL1        0.2382
     20 C           6.5256    0.9198    0.0000 C.ar    1  UNL1        0.1092
     21 C           7.4767    1.2288    0.0000 C.ar    1  UNL1        0.1465
     22 C           8.7551   -1.0876    0.0000 C.ar    1  UNL1        0.0247
     23 C           5.7409    1.6048    0.0000 C.ar    1  UNL1        0.1348
     24 C           7.7089    2.2442    0.0000 C.ar    1  UNL1        0.0231
     25 C           9.7061   -0.7786    0.0000 C.ar    1  UNL1       -0.0057
     26 C           8.5472   -2.0658    0.0000 C.ar    1  UNL1       -0.0473
     27 C           5.9496    2.6253    0.0000 C.ar    1  UNL1        0.0223
     28 C           6.9402    2.9472    0.0000 C.ar    1  UNL1        0.1239
     29 C          10.4493   -1.4477    0.0000 C.ar    1  UNL1        0.1589
     30 C           9.2903   -2.7349    0.0000 C.ar    1  UNL1       -0.0159
     31 C          10.2413   -2.4259    0.0000 C.ar    1  UNL1        0.1583
     32 H           3.9805   -2.8687    0.0000 H       1  UNL1        0.0648
     33 H           5.3114   -3.5181    0.0000 H       1  UNL1        0.0683
     34 H           4.1869   -1.4023    0.0000 H       1  UNL1        0.0647
     35 H           6.3403   -2.4531    0.0000 H       1  UNL1        0.1084
     36 H           3.6239   -1.1582    0.0000 H       1  UNL1        0.0584
     37 H           2.8442   -1.3239    0.0000 H       1  UNL1        0.0584
     38 H           4.2573   -4.3411    0.0000 H       1  UNL1        0.2100
     39 H           5.9285   -4.3411    0.0000 H       1  UNL1        0.2102
     40 H           2.0000   -2.1832    0.0000 H       1  UNL1        0.2095
     41 H           8.3008    2.4290    0.0000 H       1  UNL1        0.0691
     42 H           9.8350   -0.1721    0.0000 H       1  UNL1        0.0662
     43 H           7.9575   -2.2573    0.0000 H       1  UNL1        0.0626
     44 H           5.4873    3.0384    0.0000 H       1  UNL1        0.0691
     45 H           9.1614   -3.3413    0.0000 H       1  UNL1        0.0655
     46 H           4.3280    1.6943    0.0000 H       1  UNL1        0.2922
     47 H           6.6928    4.3411    0.0000 H       1  UNL1        0.2921
     48 H          11.5292   -0.5322    0.0000 H       1  UNL1        0.2923
     49 H          11.5741   -2.9034    0.0000 H       1  UNL1        0.2923
@<TRIPOS>BOND
     1     1    14    1
     2     1    15    1
     3    15     2    1
     4     2    17    1
     5    12     3    1
     6     3    38    1
     7    13     4    1
     8     4    39    1
     9     5    16    1
    10     5    40    1
    11     6    18   ar
    12     6    21   ar
    13     7    19    2
    14     8    23    1
    15     8    46    1
    16     9    28    1
    17     9    47    1
    18    10    29    1
    19    10    48    1
    20    11    31    1
    21    11    49    1
    22    12    13    1
    23    12    14    1
    24    12    32    1
    25    13    15    1
    26    13    33    1
    27    14    16    1
    28    14    34    1
    29    15    35    1
    30    16    36    1
    31    16    37    1
    32    17    18   ar
    33    17    19   ar
    34    18    22    1
    35    19    20   ar
    36    20    21   ar
    37    20    23   ar
    38    21    24   ar
    39    22    25   ar
    40    22    26   ar
    41    23    27   ar
    42    24    28   ar
    43    24    41    1
    44    25    29   ar
    45    25    42    1
    46    26    30   ar
    47    26    43    1
    48    27    28   ar
    49    27    44    1
    50    29    31   ar
    51    30    31   ar
    52    30    45    1
