@<TRIPOS>MOLECULE
IMPHY015812
 27 28 0 0 0
SMALL
GASTEIGER

@<TRIPOS>ATOM
      1 O           6.3981   -0.3658    0.0000 O.3     1  UNL1       -0.4577
      2 O           2.0000    1.1550    0.0000 O.3     1  UNL1       -0.4950
      3 O           3.7320   -1.8450    0.0000 O.3     1  UNL1       -0.5058
      4 O           5.4804   -1.8796    0.0000 O.2     1  UNL1       -0.2448
      5 C           5.4920    1.1897    0.0000 C.3     1  UNL1        0.0104
      6 C           6.3981    0.6758    0.0000 C.3     1  UNL1        0.1046
      7 C           4.5981    0.6550    0.0000 C.ar    1  UNL1       -0.0229
      8 C           4.5981   -0.3450    0.0000 C.ar    1  UNL1        0.1038
      9 C           7.2622    1.1792    0.0000 C.3     1  UNL1       -0.0274
     10 C           3.7320    1.1550    0.0000 C.ar    1  UNL1       -0.0156
     11 C           5.4920   -0.8797    0.0000 C.2     1  UNL1        0.3433
     12 C           3.7320   -0.8450    0.0000 C.ar    1  UNL1        0.1346
     13 C           2.8660    0.6550    0.0000 C.ar    1  UNL1        0.1239
     14 C           2.8660   -0.3450    0.0000 C.ar    1  UNL1        0.0224
     15 C           2.0000    2.1550    0.0000 C.3     1  UNL1        0.0788
     16 H           5.8856    1.6687    0.0000 H       1  UNL1        0.0349
     17 H           5.0874    1.6594    0.0000 H       1  UNL1        0.0349
     18 H           6.9356    0.3669    0.0000 H       1  UNL1        0.0734
     19 H           7.5742    0.6434    0.0000 H       1  UNL1        0.0265
     20 H           7.7979    1.4912    0.0000 H       1  UNL1        0.0265
     21 H           6.9501    1.7149    0.0000 H       1  UNL1        0.0265
     22 H           3.7320    1.7750    0.0000 H       1  UNL1        0.0657
     23 H           2.3291   -0.6550    0.0000 H       1  UNL1        0.0691
     24 H           3.1951   -2.1550    0.0000 H       1  UNL1        0.2922
     25 H           2.6200    2.1550    0.0000 H       1  UNL1        0.0660
     26 H           2.0000    2.7750    0.0000 H       1  UNL1        0.0660
     27 H           1.3800    2.1550    0.0000 H       1  UNL1        0.0660
@<TRIPOS>BOND
     1     1     6    1
     2     1    11    1
     3     2    13    1
     4     2    15    1
     5     3    12    1
     6     3    24    1
     7     4    11    2
     8     5     6    1
     9     5     7    1
    10     5    16    1
    11     5    17    1
    12     6     9    1
    13     6    18    1
    14     7     8   ar
    15     7    10   ar
    16     8    11    1
    17     8    12   ar
    18     9    19    1
    19     9    20    1
    20     9    21    1
    21    10    13   ar
    22    10    22    1
    23    12    14   ar
    24    13    14   ar
    25    14    23    1
    26    15    25    1
    27    15    26    1
    28    15    27    1
