@<TRIPOS>MOLECULE
IMPHY016861
 51 50 0 0 0
SMALL
GASTEIGER

@<TRIPOS>ATOM
      1 O           4.5981    0.7500    0.0000 O.3     1  UNL1       -0.4616
      2 O           3.7320   -0.7500    0.0000 O.2     1  UNL1       -0.2456
      3 C          10.6603    0.2500    0.0000 C.3     1  UNL1       -0.0531
      4 C          11.5263    0.7500    0.0000 C.3     1  UNL1       -0.0531
      5 C           9.7942    0.7500    0.0000 C.3     1  UNL1       -0.0531
      6 C          12.3923    0.2500    0.0000 C.3     1  UNL1       -0.0531
      7 C           8.9282    0.2500    0.0000 C.3     1  UNL1       -0.0531
      8 C          13.2583    0.7500    0.0000 C.3     1  UNL1       -0.0531
      9 C           8.0622    0.7500    0.0000 C.3     1  UNL1       -0.0530
     10 C          14.1244    0.2500    0.0000 C.3     1  UNL1       -0.0531
     11 C           7.1962    0.2500    0.0000 C.3     1  UNL1       -0.0500
     12 C          14.9904    0.7500    0.0000 C.3     1  UNL1       -0.0533
     13 C           6.3301    0.7500    0.0000 C.3     1  UNL1       -0.0185
     14 C          15.8564    0.2500    0.0000 C.3     1  UNL1       -0.0559
     15 C           5.4641    0.2500    0.0000 C.3     1  UNL1        0.0928
     16 C          16.7224    0.7500    0.0000 C.3     1  UNL1       -0.0653
     17 C           3.7320    0.2500    0.0000 C.2     1  UNL1        0.3314
     18 C           2.8660    0.7500    0.0000 C.2     1  UNL1        0.0154
     19 C           2.0000    0.2500    0.0000 C.2     1  UNL1       -0.0919
     20 H          10.2617   -0.2249    0.0000 H       1  UNL1        0.0265
     21 H          11.0588   -0.2249    0.0000 H       1  UNL1        0.0265
     22 H          11.9248    1.2250    0.0000 H       1  UNL1        0.0265
     23 H          11.1278    1.2250    0.0000 H       1  UNL1        0.0265
     24 H          10.1928    1.2250    0.0000 H       1  UNL1        0.0265
     25 H           9.3957    1.2250    0.0000 H       1  UNL1        0.0265
     26 H          11.9938   -0.2249    0.0000 H       1  UNL1        0.0265
     27 H          12.7908   -0.2249    0.0000 H       1  UNL1        0.0265
     28 H           8.5297   -0.2249    0.0000 H       1  UNL1        0.0265
     29 H           9.3267   -0.2249    0.0000 H       1  UNL1        0.0265
     30 H          13.6569    1.2250    0.0000 H       1  UNL1        0.0265
     31 H          12.8598    1.2250    0.0000 H       1  UNL1        0.0265
     32 H           8.4607    1.2250    0.0000 H       1  UNL1        0.0265
     33 H           7.6636    1.2250    0.0000 H       1  UNL1        0.0265
     34 H          13.7258   -0.2249    0.0000 H       1  UNL1        0.0265
     35 H          14.5229   -0.2249    0.0000 H       1  UNL1        0.0265
     36 H           6.7976   -0.2249    0.0000 H       1  UNL1        0.0266
     37 H           7.5947   -0.2249    0.0000 H       1  UNL1        0.0266
     38 H          15.3889    1.2250    0.0000 H       1  UNL1        0.0265
     39 H          14.5919    1.2250    0.0000 H       1  UNL1        0.0265
     40 H           6.7287    1.2250    0.0000 H       1  UNL1        0.0298
     41 H           5.9316    1.2250    0.0000 H       1  UNL1        0.0298
     42 H          15.4579   -0.2249    0.0000 H       1  UNL1        0.0263
     43 H          16.2549   -0.2249    0.0000 H       1  UNL1        0.0263
     44 H           5.0656   -0.2249    0.0000 H       1  UNL1        0.0697
     45 H           5.8626   -0.2249    0.0000 H       1  UNL1        0.0697
     46 H          17.0324    0.2131    0.0000 H       1  UNL1        0.0230
     47 H          17.2594    1.0600    0.0000 H       1  UNL1        0.0230
     48 H          16.4124    1.2869    0.0000 H       1  UNL1        0.0230
     49 H           2.8660    1.3700    0.0000 H       1  UNL1        0.0683
     50 H           1.4631    0.5600    0.0000 H       1  UNL1        0.0537
     51 H           2.0000   -0.3700    0.0000 H       1  UNL1        0.0537
@<TRIPOS>BOND
     1     1    15    1
     2     1    17    1
     3     2    17    2
     4     3     4    1
     5     3     5    1
     6     3    20    1
     7     3    21    1
     8     4     6    1
     9     4    22    1
    10     4    23    1
    11     5     7    1
    12     5    24    1
    13     5    25    1
    14     6     8    1
    15     6    26    1
    16     6    27    1
    17     7     9    1
    18     7    28    1
    19     7    29    1
    20     8    10    1
    21     8    30    1
    22     8    31    1
    23     9    11    1
    24     9    32    1
    25     9    33    1
    26    10    12    1
    27    10    34    1
    28    10    35    1
    29    11    13    1
    30    11    36    1
    31    11    37    1
    32    12    14    1
    33    12    38    1
    34    12    39    1
    35    13    15    1
    36    13    40    1
    37    13    41    1
    38    14    16    1
    39    14    42    1
    40    14    43    1
    41    15    44    1
    42    15    45    1
    43    16    46    1
    44    16    47    1
    45    16    48    1
    46    17    18    1
    47    18    19    2
    48    18    49    1
    49    19    50    1
    50    19    51    1
