@<TRIPOS>MOLECULE
IMPHY017938
 28 27 0 0 0
SMALL
GASTEIGER

@<TRIPOS>ATOM
      1 F          18.8205    0.9330    0.0000 F       1  UNL1       -0.1833
      2 F          19.8205   -0.7990    0.0000 F       1  UNL1       -0.1833
      3 F          21.0526    1.0670    0.0000 F       1  UNL1       -0.1645
      4 F          20.6865   -0.2990    0.0000 F       1  UNL1       -0.1645
      5 F          19.6865    1.4330    0.0000 F       1  UNL1       -0.1645
      6 O          17.5885    0.0670    0.0000 O.3     1  UNL1       -0.4446
      7 O          18.4545   -1.4330    0.0000 O.2     1  UNL1       -0.2437
      8 C           9.7942   -0.4330    0.0000 C.3     1  UNL1        0.0000
      9 C           8.9282    0.0670    0.0000 C.3     1  UNL1        0.0000
     10 C          10.6603    0.0670    0.0000 C.3     1  UNL1        0.0000
     11 C           8.0622   -0.4330    0.0000 C.3     1  UNL1        0.0000
     12 C          11.5263   -0.4330    0.0000 C.3     1  UNL1        0.0000
     13 C           7.1962    0.0670    0.0000 C.3     1  UNL1        0.0000
     14 C          12.3923    0.0670    0.0000 C.3     1  UNL1        0.0000
     15 C           6.3301   -0.4330    0.0000 C.3     1  UNL1        0.0000
     16 C          13.2583   -0.4330    0.0000 C.3     1  UNL1        0.0000
     17 C           5.4641    0.0670    0.0000 C.3     1  UNL1        0.0000
     18 C          14.1244    0.0670    0.0000 C.3     1  UNL1        0.0001
     19 C           4.5981   -0.4330    0.0000 C.3     1  UNL1        0.0000
     20 C          14.9904   -0.4330    0.0000 C.3     1  UNL1        0.0038
     21 C           3.7321    0.0670    0.0000 C.3     1  UNL1        0.0000
     22 C          15.8564    0.0670    0.0000 C.3     1  UNL1        0.0474
     23 C           2.8660   -0.4330    0.0000 C.3     1  UNL1        0.0000
     24 C          16.7224   -0.4330    0.0000 C.3     1  UNL1        0.2086
     25 C           2.0000    0.0670    0.0000 C.3     1  UNL1        0.0000
     26 C          18.4545   -0.4330    0.0000 C.2     1  UNL1        0.3877
     27 C          19.3205    0.0670    0.0000 C.3     1  UNL1        0.4353
     28 C          20.1865    0.5670    0.0000 C.3     1  UNL1        0.4654
@<TRIPOS>BOND
     1     1    27    1
     2     2    27    1
     3     3    28    1
     4     4    28    1
     5     5    28    1
     6     6    24    1
     7     6    26    1
     8     7    26    2
     9     8     9    1
    10     8    10    1
    11     9    11    1
    12    10    12    1
    13    11    13    1
    14    12    14    1
    15    13    15    1
    16    14    16    1
    17    15    17    1
    18    16    18    1
    19    17    19    1
    20    18    20    1
    21    19    21    1
    22    20    22    1
    23    21    23    1
    24    22    24    1
    25    23    25    1
    26    26    27    1
    27    27    28    1
