@<TRIPOS>MOLECULE
IMPHY007740
 38 39 0 0 0
SMALL
GASTEIGER

@<TRIPOS>ATOM
      1 O           6.3961    1.2741    0.0000 O.2     1  UNL1       -0.2924
      2 C           2.8660   -0.7500    0.0000 C.3     1  UNL1       -0.0316
      3 C           3.7320   -0.2500    0.0000 C.3     1  UNL1       -0.0123
      4 C           3.7320    0.7500    0.0000 C.3     1  UNL1       -0.0066
      5 C           2.0000   -0.2500    0.0000 C.3     1  UNL1       -0.0457
      6 C           2.8660   -1.7500    0.0000 C.3     1  UNL1       -0.0433
      7 C           2.0000    0.7500    0.0000 C.3     1  UNL1       -0.0314
      8 C           2.8660    1.2500    0.0000 C.2     1  UNL1       -0.0725
      9 C           4.6260    1.2847    0.0000 C.3     1  UNL1        0.0172
     10 C           4.6260   -0.7847    0.0000 C.2     1  UNL1       -0.0739
     11 C           5.5321   -0.2708    0.0000 C.2     1  UNL1       -0.0117
     12 C           5.5321    0.7708    0.0000 C.2     1  UNL1        0.1593
     13 C           2.0000   -2.2500    0.0000 C.3     1  UNL1       -0.0624
     14 C           3.7320   -2.2500    0.0000 C.3     1  UNL1       -0.0624
     15 C           2.8660    2.2500    0.0000 C.2     1  UNL1       -0.0992
     16 C           6.3961   -0.7742    0.0000 C.3     1  UNL1       -0.0367
     17 H           2.3291   -1.0600    0.0000 H       1  UNL1        0.0309
     18 H           3.7255   -1.1000    0.0000 H       1  UNL1        0.0352
     19 H           3.7255    1.6000    0.0000 H       1  UNL1        0.0355
     20 H           1.3894   -0.1423    0.0000 H       1  UNL1        0.0271
     21 H           1.7880   -0.8326    0.0000 H       1  UNL1        0.0271
     22 H           2.8660   -2.3700    0.0000 H       1  UNL1        0.0298
     23 H           1.7880    1.3326    0.0000 H       1  UNL1        0.0310
     24 H           1.3894    0.6423    0.0000 H       1  UNL1        0.0310
     25 H           5.0196    1.7637    0.0000 H       1  UNL1        0.0351
     26 H           4.2214    1.7544    0.0000 H       1  UNL1        0.0351
     27 H           4.6188   -1.4046    0.0000 H       1  UNL1        0.0579
     28 H           1.6900   -1.7131    0.0000 H       1  UNL1        0.0232
     29 H           1.4631   -2.5600    0.0000 H       1  UNL1        0.0232
     30 H           2.3100   -2.7869    0.0000 H       1  UNL1        0.0232
     31 H           3.4220   -2.7869    0.0000 H       1  UNL1        0.0232
     32 H           4.2690   -2.5600    0.0000 H       1  UNL1        0.0232
     33 H           4.0420   -1.7131    0.0000 H       1  UNL1        0.0232
     34 H           3.4030    2.5600    0.0000 H       1  UNL1        0.0534
     35 H           2.3291    2.5600    0.0000 H       1  UNL1        0.0534
     36 H           6.0841   -1.3099    0.0000 H       1  UNL1        0.0278
     37 H           6.9319   -1.0862    0.0000 H       1  UNL1        0.0278
     38 H           6.7082   -0.2384    0.0000 H       1  UNL1        0.0278
@<TRIPOS>BOND
     1     1    12    2
     2     2     3    1
     3     2     5    1
     4     2     6    1
     5     2    17    1
     6     3     4    1
     7     3    10    1
     8     3    18    1
     9     4     8    1
    10     4     9    1
    11     4    19    1
    12     5     7    1
    13     5    20    1
    14     5    21    1
    15     6    13    1
    16     6    14    1
    17     6    22    1
    18     7     8    1
    19     7    23    1
    20     7    24    1
    21     8    15    2
    22     9    12    1
    23     9    25    1
    24     9    26    1
    25    10    11    2
    26    10    27    1
    27    11    12    1
    28    11    16    1
    29    13    28    1
    30    13    29    1
    31    13    30    1
    32    14    31    1
    33    14    32    1
    34    14    33    1
    35    15    34    1
    36    15    35    1
    37    16    36    1
    38    16    37    1
    39    16    38    1
