@<TRIPOS>MOLECULE
IMPHY012736
 44 45 0 0 0
SMALL
GASTEIGER

@<TRIPOS>ATOM
      1 O           3.3741   -0.6603    0.0000 O.3     1  UNL1       -0.4531
      2 O           4.6068   -2.3618    0.0000 O.2     1  UNL1       -0.2884
      3 O           3.6002   -2.3776    0.0000 O.2     1  UNL1       -0.2511
      4 C           4.8814    1.4111    0.0000 C.3     1  UNL1       -0.0272
      5 C           4.6244    0.4361    0.0000 C.3     1  UNL1        0.0152
      6 C           5.5903    0.1773    0.0000 C.3     1  UNL1       -0.0125
      7 C           5.8553    1.1502    0.0000 C.3     1  UNL1       -0.0405
      8 C           4.3656   -0.5298    0.0000 C.3     1  UNL1        0.1685
      9 C           5.1382    2.3776    0.0000 C.3     1  UNL1       -0.0594
     10 C           3.9149    1.6680    0.0000 C.3     1  UNL1       -0.0594
     11 C           6.4563    0.6773    0.0000 C.2     1  UNL1       -0.0728
     12 C           7.3224    0.1773    0.0000 C.3     1  UNL1       -0.0283
     13 C           4.8656   -1.3958    0.0000 C.2     1  UNL1        0.1992
     14 C           6.4563    1.6773    0.0000 C.2     1  UNL1       -0.0992
     15 C           7.4636   -0.8958    0.0000 C.3     1  UNL1       -0.0304
     16 C           5.7316   -0.8958    0.0000 C.2     1  UNL1       -0.0082
     17 C           6.5976   -1.3958    0.0000 C.2     1  UNL1       -0.0774
     18 C           2.9914   -1.5842    0.0000 C.2     1  UNL1        0.3046
     19 C           5.7316    0.1042    0.0000 C.3     1  UNL1       -0.0366
     20 C           2.0000   -1.7147    0.0000 C.3     1  UNL1        0.0333
     21 H           3.8029    0.6544    0.0000 H       1  UNL1        0.0352
     22 H           5.7013   -0.6654    0.0000 H       1  UNL1        0.0350
     23 H           6.4537    0.9880    0.0000 H       1  UNL1        0.0276
     24 H           6.0166    1.7488    0.0000 H       1  UNL1        0.0276
     25 H           3.9568   -0.0637    0.0000 H       1  UNL1        0.0821
     26 H           5.7374    2.2183    0.0000 H       1  UNL1        0.0235
     27 H           5.2974    2.9768    0.0000 H       1  UNL1        0.0235
     28 H           4.5390    2.5368    0.0000 H       1  UNL1        0.0235
     29 H           4.0741    2.2672    0.0000 H       1  UNL1        0.0235
     30 H           3.3157    1.8272    0.0000 H       1  UNL1        0.0235
     31 H           3.7557    1.0687    0.0000 H       1  UNL1        0.0235
     32 H           7.9400    0.1233    0.0000 H       1  UNL1        0.0313
     33 H           7.5088    0.7686    0.0000 H       1  UNL1        0.0313
     34 H           6.9933    1.9873    0.0000 H       1  UNL1        0.0534
     35 H           5.9194    1.9873    0.0000 H       1  UNL1        0.0534
     36 H           7.7009   -1.4686    0.0000 H       1  UNL1        0.0311
     37 H           8.0625   -0.7354    0.0000 H       1  UNL1        0.0311
     38 H           6.5976   -2.0158    0.0000 H       1  UNL1        0.0576
     39 H           6.3516    0.1042    0.0000 H       1  UNL1        0.0279
     40 H           5.7316    0.7242    0.0000 H       1  UNL1        0.0279
     41 H           5.1116    0.1042    0.0000 H       1  UNL1        0.0279
     42 H           1.9191   -1.1000    0.0000 H       1  UNL1        0.0342
     43 H           1.3853   -1.7957    0.0000 H       1  UNL1        0.0342
     44 H           2.0809   -2.3294    0.0000 H       1  UNL1        0.0342
@<TRIPOS>BOND
     1     8     1    1
     2     1    18    1
     3     2    13    2
     4     3    18    2
     5     4     5    1
     6     4     7    1
     7     4     9    1
     8     4    10    1
     9     5     6    1
    10     5     8    1
    11     5    21    1
    12     6     7    1
    13     6    11    1
    14     6    22    1
    15     7    23    1
    16     7    24    1
    17     8    13    1
    18     8    25    1
    19     9    26    1
    20     9    27    1
    21     9    28    1
    22    10    29    1
    23    10    30    1
    24    10    31    1
    25    11    12    1
    26    11    14    2
    27    12    15    1
    28    12    32    1
    29    12    33    1
    30    13    16    1
    31    14    34    1
    32    14    35    1
    33    15    17    1
    34    15    36    1
    35    15    37    1
    36    16    17    2
    37    16    19    1
    38    17    38    1
    39    18    20    1
    40    19    39    1
    41    19    40    1
    42    19    41    1
    43    20    42    1
    44    20    43    1
    45    20    44    1
