@<TRIPOS>MOLECULE
IMPHY000917
 40 44 0 0 0
SMALL
GASTEIGER

@<TRIPOS>ATOM
      1 O           7.1256    1.3396    0.0000 O.3     1  UNL1       -0.4542
      2 O           8.8958    0.3427    0.0000 O.3     1  UNL1       -0.3841
      3 O           2.6079    0.0014    0.0000 O.3     1  UNL1       -0.4526
      4 O           2.6079    1.6778    0.0000 O.3     1  UNL1       -0.4526
      5 O           6.2596    2.8396    0.0000 O.2     1  UNL1       -0.2449
      6 N           5.4705   -1.8908    0.0000 N.3     1  UNL1       -0.2977
      7 C           6.2435   -1.2019    0.0000 C.3     1  UNL1        0.0418
      8 C           6.2596   -0.1604    0.0000 C.3     1  UNL1        0.0442
      9 C           7.1256    0.3396    0.0000 C.3     1  UNL1        0.1411
     10 C           7.1415   -1.7296    0.0000 C.2     1  UNL1       -0.0520
     11 C           8.0356   -0.1672    0.0000 C.3     1  UNL1        0.1111
     12 C           6.9158   -2.7402    0.0000 C.3     1  UNL1       -0.0173
     13 C           5.8851   -2.8396    0.0000 C.3     1  UNL1        0.0029
     14 C           5.3935    0.3396    0.0000 C.ar    1  UNL1       -0.0212
     15 C           8.0436   -1.2088    0.0000 C.2     1  UNL1       -0.0516
     16 C           5.3935    1.3396    0.0000 C.ar    1  UNL1        0.0663
     17 C           4.4936   -1.6770    0.0000 C.3     1  UNL1       -0.0122
     18 C           4.4996   -0.1950    0.0000 C.ar    1  UNL1       -0.0117
     19 C           6.2596    1.8396    0.0000 C.2     1  UNL1        0.3399
     20 C           4.4996    1.8743    0.0000 C.ar    1  UNL1       -0.0019
     21 C           3.5935    0.3188    0.0000 C.ar    1  UNL1        0.1665
     22 C           3.5935    1.3604    0.0000 C.ar    1  UNL1        0.1670
     23 C           2.0000    0.8396    0.0000 C.3     1  UNL1        0.2332
     24 H           5.4706   -0.8482    0.0000 H       1  UNL1        0.0516
     25 H           5.5202   -0.5797    0.0000 H       1  UNL1        0.0405
     26 H           7.8584    0.7703    0.0000 H       1  UNL1        0.0770
     27 H           8.5755   -0.4720    0.0000 H       1  UNL1        0.0675
     28 H           6.9101   -3.3602    0.0000 H       1  UNL1        0.0323
     29 H           7.5318   -2.8110    0.0000 H       1  UNL1        0.0323
     30 H           5.2941   -3.0268    0.0000 H       1  UNL1        0.0430
     31 H           6.0092   -3.4471    0.0000 H       1  UNL1        0.0430
     32 H           8.5817   -1.5168    0.0000 H       1  UNL1        0.0599
     33 H           4.6261   -1.0714    0.0000 H       1  UNL1        0.0391
     34 H           3.8879   -1.5445    0.0000 H       1  UNL1        0.0391
     35 H           4.3610   -2.2827    0.0000 H       1  UNL1        0.0391
     36 H           4.5068   -0.8150    0.0000 H       1  UNL1        0.0658
     37 H           9.4362    0.0390    0.0000 H       1  UNL1        0.2104
     38 H           4.5068    2.4942    0.0000 H       1  UNL1        0.0663
     39 H           1.5391    1.2543    0.0000 H       1  UNL1        0.1166
     40 H           1.5391    0.4249    0.0000 H       1  UNL1        0.1166
@<TRIPOS>BOND
     1     1     9    1
     2     1    19    1
     3    11     2    1
     4     2    37    1
     5     3    21    1
     6     3    23    1
     7     4    22    1
     8     4    23    1
     9     5    19    2
    10     6     7    1
    11     6    13    1
    12     6    17    1
    13     7     8    1
    14     7    10    1
    15     7    24    1
    16     8     9    1
    17     8    14    1
    18     8    25    1
    19     9    11    1
    20     9    26    1
    21    10    12    1
    22    10    15    2
    23    11    15    1
    24    11    27    1
    25    12    13    1
    26    12    28    1
    27    12    29    1
    28    13    30    1
    29    13    31    1
    30    14    16   ar
    31    14    18   ar
    32    15    32    1
    33    16    19    1
    34    16    20   ar
    35    17    33    1
    36    17    34    1
    37    17    35    1
    38    18    21   ar
    39    18    36    1
    40    20    22   ar
    41    20    38    1
    42    21    22   ar
    43    23    39    1
    44    23    40    1
