@<TRIPOS>MOLECULE
IMPHY007863
 72 75 0 0 0
SMALL
GASTEIGER

@<TRIPOS>ATOM
      1 O           6.3301    0.3548    0.0000 O.3     1  UNL1       -0.4800
      2 O           3.9554   -0.4113    0.0000 O.3     1  UNL1       -0.4913
      3 O           2.8660    2.3548    0.0000 O.3     1  UNL1       -0.4947
      4 O           5.9469   -3.2303    0.0000 O.2     1  UNL1       -0.2875
      5 O           9.2021   -4.4151    0.0000 O.2     1  UNL1       -0.4912
      6 O           9.8861   -2.5357    0.0000 O.2     1  UNL1       -0.2840
      7 O           6.3301    2.3548    0.0000 O.3     1  UNL1       -0.5065
      8 C           6.6309   -1.3509    0.0000 C.3     1  UNL1        0.0263
      9 C           6.9730   -0.4112    0.0000 C.3     1  UNL1        0.1319
     10 C           7.2737   -2.1170    0.0000 C.2     1  UNL1        0.0098
     11 C           7.9577   -0.2376    0.0000 C.ar    1  UNL1       -0.0068
     12 C           5.6460   -1.5246    0.0000 C.3     1  UNL1       -0.0546
     13 C           5.4641    0.8548    0.0000 C.ar    1  UNL1        0.1633
     14 C           4.5981    3.3548    0.0000 C.3     1  UNL1        0.0340
     15 C           4.5981    2.3548    0.0000 C.ar    1  UNL1        0.0092
     16 C           5.4641    1.8548    0.0000 C.ar    1  UNL1       -0.0087
     17 C           6.9317   -3.0567    0.0000 C.2     1  UNL1        0.1862
     18 C           8.2586   -1.9433    0.0000 C.2     1  UNL1       -0.0041
     19 C           8.6005   -1.0036    0.0000 C.ar    1  UNL1       -0.0551
     20 C           8.2997    0.7021    0.0000 C.ar    1  UNL1       -0.0551
     21 C           4.5981    0.3548    0.0000 C.ar    1  UNL1        0.1650
     22 C           3.7320    1.8548    0.0000 C.ar    1  UNL1        0.1278
     23 C           5.4641    3.8548    0.0000 C.ar    1  UNL1        0.0053
     24 C           3.7320    0.8548    0.0000 C.ar    1  UNL1        0.0257
     25 C           8.9014   -2.7093    0.0000 C.2     1  UNL1        0.2207
     26 C           7.5745   -3.8227    0.0000 C.2     1  UNL1        0.0309
     27 C           3.7320    3.8548    0.0000 C.2     1  UNL1       -0.0792
     28 C           8.5593   -3.6490    0.0000 C.2     1  UNL1        0.1702
     29 C           9.5853   -0.8300    0.0000 C.ar    1  UNL1       -0.0614
     30 C           9.2846    0.8757    0.0000 C.ar    1  UNL1       -0.0614
     31 C           9.9273    0.1097    0.0000 C.ar    1  UNL1       -0.0617
     32 C           6.3301    3.3548    0.0000 C.ar    1  UNL1        0.1209
     33 C           5.4641    4.8548    0.0000 C.ar    1  UNL1       -0.0542
     34 C           7.1962    3.8548    0.0000 C.ar    1  UNL1       -0.0199
     35 C           6.3301    5.3548    0.0000 C.ar    1  UNL1       -0.0612
     36 C           3.7320    4.8548    0.0000 C.2     1  UNL1       -0.1017
     37 C           7.1962    4.8548    0.0000 C.ar    1  UNL1       -0.0583
     38 C           2.9705   -0.2376    0.0000 C.3     1  UNL1        0.0790
     39 C           2.0000    1.8548    0.0000 C.3     1  UNL1        0.0788
     40 C           8.8601   -5.3548    0.0000 C.3     1  UNL1        0.0790
     41 H           6.4189   -1.9336    0.0000 H       1  UNL1        0.0387
     42 H           7.1850    0.1714    0.0000 H       1  UNL1        0.0790
     43 H           5.5384   -0.9140    0.0000 H       1  UNL1        0.0237
     44 H           5.0355   -1.6322    0.0000 H       1  UNL1        0.0237
     45 H           5.7537   -2.1352    0.0000 H       1  UNL1        0.0237
     46 H           4.5981    3.9748    0.0000 H       1  UNL1        0.0442
     47 H           6.0010    2.1648    0.0000 H       1  UNL1        0.0659
     48 H           8.4706   -1.3607    0.0000 H       1  UNL1        0.0661
     49 H           8.3885   -1.5863    0.0000 H       1  UNL1        0.0621
     50 H           7.9012    1.1770    0.0000 H       1  UNL1        0.0621
     51 H           3.1951    0.5448    0.0000 H       1  UNL1        0.0692
     52 H           7.3625   -4.4053    0.0000 H       1  UNL1        0.0694
     53 H           3.1951    3.5448    0.0000 H       1  UNL1        0.0576
     54 H           9.9838   -1.3050    0.0000 H       1  UNL1        0.0618
     55 H           9.4966    1.4583    0.0000 H       1  UNL1        0.0618
     56 H          10.5379    0.2174    0.0000 H       1  UNL1        0.0618
     57 H           4.9272    5.1648    0.0000 H       1  UNL1        0.0622
     58 H           7.7331    3.5448    0.0000 H       1  UNL1        0.0654
     59 H           6.3301    5.9748    0.0000 H       1  UNL1        0.0618
     60 H           4.2690    5.1648    0.0000 H       1  UNL1        0.0532
     61 H           3.1951    5.1648    0.0000 H       1  UNL1        0.0532
     62 H           7.7331    5.1648    0.0000 H       1  UNL1        0.0619
     63 H           3.0782    0.3729    0.0000 H       1  UNL1        0.0660
     64 H           2.3599   -0.1300    0.0000 H       1  UNL1        0.0660
     65 H           2.8628   -0.8482    0.0000 H       1  UNL1        0.0660
     66 H           1.6900    2.3917    0.0000 H       1  UNL1        0.0660
     67 H           1.4631    1.5448    0.0000 H       1  UNL1        0.0660
     68 H           2.3100    1.3178    0.0000 H       1  UNL1        0.0660
     69 H           6.8671    2.0448    0.0000 H       1  UNL1        0.2921
     70 H           8.2775   -5.1427    0.0000 H       1  UNL1        0.0660
     71 H           8.6480   -5.9374    0.0000 H       1  UNL1        0.0660
     72 H           9.4427   -5.5668    0.0000 H       1  UNL1        0.0660
@<TRIPOS>BOND
     1     1     9    1
     2     1    13    1
     3     2    21    1
     4     2    38    1
     5     3    22    1
     6     3    39    1
     7     4    17    2
     8     5    28    1
     9     5    40    1
    10     6    25    2
    11     7    32    1
    12     7    69    1
    13     8     9    1
    14     8    10    1
    15     8    12    1
    16     8    41    1
    17     9    11    1
    18     9    42    1
    19    10    17    1
    20    10    18    2
    21    11    19   ar
    22    11    20   ar
    23    12    43    1
    24    12    44    1
    25    12    45    1
    26    13    16   ar
    27    13    21   ar
    28    14    15    1
    29    14    23    1
    30    14    27    1
    31    14    46    1
    32    15    16   ar
    33    15    22   ar
    34    16    47    1
    35    17    26    1
    36    18    25    1
    37    18    48    1
    38    19    29   ar
    39    19    49    1
    40    20    30   ar
    41    20    50    1
    42    21    24   ar
    43    22    24   ar
    44    23    32   ar
    45    23    33   ar
    46    24    51    1
    47    25    28    1
    48    26    28    2
    49    26    52    1
    50    27    36    2
    51    27    53    1
    52    29    31   ar
    53    29    54    1
    54    30    31   ar
    55    30    55    1
    56    31    56    1
    57    32    34   ar
    58    33    35   ar
    59    33    57    1
    60    34    37   ar
    61    34    58    1
    62    35    37   ar
    63    35    59    1
    64    36    60    1
    65    36    61    1
    66    37    62    1
    67    38    63    1
    68    38    64    1
    69    38    65    1
    70    39    66    1
    71    39    67    1
    72    39    68    1
    73    40    70    1
    74    40    71    1
    75    40    72    1
