@<TRIPOS>MOLECULE
IMPHY015479
 19 18 0 0 0
SMALL
GASTEIGER

@<TRIPOS>ATOM
      1 S           4.5981   -0.2500    0.0000 S.3     1  UNL1       -0.1567
      2 C           6.3301   -0.2500    0.0000 C.3     1  UNL1       -0.0468
      3 C           5.4641    0.2500    0.0000 C.3     1  UNL1       -0.0063
      4 C           7.1962    0.2500    0.0000 C.3     1  UNL1       -0.0645
      5 C           3.7320    0.2500    0.0000 C.3     1  UNL1        0.0115
      6 C           2.8660   -0.2500    0.0000 C.2     1  UNL1       -0.0813
      7 C           2.0000    0.2500    0.0000 C.2     1  UNL1       -0.1019
      8 H           5.9316   -0.7249    0.0000 H       1  UNL1        0.0270
      9 H           6.7287   -0.7249    0.0000 H       1  UNL1        0.0270
     10 H           5.8626    0.7249    0.0000 H       1  UNL1        0.0376
     11 H           5.0656    0.7249    0.0000 H       1  UNL1        0.0376
     12 H           7.5062   -0.2869    0.0000 H       1  UNL1        0.0230
     13 H           7.7331    0.5600    0.0000 H       1  UNL1        0.0230
     14 H           6.8862    0.7869    0.0000 H       1  UNL1        0.0230
     15 H           4.1306    0.7249    0.0000 H       1  UNL1        0.0419
     16 H           3.3335    0.7249    0.0000 H       1  UNL1        0.0419
     17 H           2.8660   -0.8700    0.0000 H       1  UNL1        0.0574
     18 H           2.0000    0.8700    0.0000 H       1  UNL1        0.0532
     19 H           1.4631   -0.0600    0.0000 H       1  UNL1        0.0532
@<TRIPOS>BOND
     1     1     3    1
     2     1     5    1
     3     2     3    1
     4     2     4    1
     5     2     8    1
     6     2     9    1
     7     3    10    1
     8     3    11    1
     9     4    12    1
    10     4    13    1
    11     4    14    1
    12     5     6    1
    13     5    15    1
    14     5    16    1
    15     6     7    2
    16     6    17    1
    17     7    18    1
    18     7    19    1
