@<TRIPOS>MOLECULE
IMPHY003204
 22 22 0 0 0
SMALL
GASTEIGER

@<TRIPOS>ATOM
      1 C           2.8660   -0.7500    0.0000 C.ar    1  UNL1       -0.0356
      2 C           2.8660    0.2500    0.0000 C.3     1  UNL1        0.0352
      3 C           2.0000   -1.2500    0.0000 C.ar    1  UNL1       -0.0577
      4 C           3.7320   -1.2500    0.0000 C.ar    1  UNL1       -0.0577
      5 C           2.0000   -2.2500    0.0000 C.ar    1  UNL1       -0.0615
      6 C           3.7320   -2.2500    0.0000 C.ar    1  UNL1       -0.0615
      7 C           2.8660   -2.7500    0.0000 C.ar    1  UNL1       -0.0617
      8 C           3.7320    0.7500    0.0000 C.1     1  UNL1       -0.0837
      9 C           4.5981    1.2500    0.0000 C.1     1  UNL1       -0.0145
     10 C           5.4641    1.7500    0.0000 C.1     1  UNL1       -0.0151
     11 C           7.1962    2.7500    0.0000 C.3     1  UNL1       -0.0016
     12 C           6.3301    2.2500    0.0000 C.1     1  UNL1       -0.0918
     13 H           2.6540    0.8326    0.0000 H       1  UNL1        0.0446
     14 H           2.2554    0.1423    0.0000 H       1  UNL1        0.0446
     15 H           1.4631   -0.9400    0.0000 H       1  UNL1        0.0621
     16 H           4.2690   -0.9400    0.0000 H       1  UNL1        0.0621
     17 H           1.4631   -2.5600    0.0000 H       1  UNL1        0.0618
     18 H           4.2690   -2.5600    0.0000 H       1  UNL1        0.0618
     19 H           2.8660   -3.3700    0.0000 H       1  UNL1        0.0618
     20 H           7.5062    2.2131    0.0000 H       1  UNL1        0.0362
     21 H           7.7331    3.0600    0.0000 H       1  UNL1        0.0362
     22 H           6.8862    3.2869    0.0000 H       1  UNL1        0.0362
@<TRIPOS>BOND
     1     1     2    1
     2     1     3   ar
     3     1     4   ar
     4     2     8    1
     5     2    13    1
     6     2    14    1
     7     3     5   ar
     8     3    15    1
     9     4     6   ar
    10     4    16    1
    11     5     7   ar
    12     5    17    1
    13     6     7   ar
    14     6    18    1
    15     7    19    1
    16     8     9    3
    17     9    10    1
    18    10    12    3
    19    11    12    1
    20    11    20    1
    21    11    21    1
    22    11    22    1
