@<TRIPOS>MOLECULE
IMPHY013932
 31 33 0 0 0
SMALL
GASTEIGER

@<TRIPOS>ATOM
      1 O           4.6660   -1.0000    0.0000 O.2     1  UNL1       -0.4545
      2 O           8.1962    1.0241    0.0000 O.3     1  UNL1       -0.4914
      3 O           8.1962   -1.0241    0.0000 O.3     1  UNL1       -0.4913
      4 O           4.6660    2.0000    0.0000 O.2     1  UNL1       -0.2864
      5 C           5.5321    0.5000    0.0000 C.ar    1  UNL1        0.0683
      6 C           5.5321   -0.5000    0.0000 C.ar    1  UNL1        0.1430
      7 C           3.8000    0.5000    0.0000 C.ar    1  UNL1        0.0646
      8 C           4.6660    1.0000    0.0000 C.ar    1  UNL1        0.2003
      9 C           3.8000   -0.5000    0.0000 C.ar    1  UNL1        0.1393
     10 C           6.4260    1.0347    0.0000 C.ar    1  UNL1       -0.0019
     11 C           6.4260   -1.0347    0.0000 C.ar    1  UNL1        0.0267
     12 C           7.3321    0.5208    0.0000 C.ar    1  UNL1        0.1624
     13 C           7.3321   -0.5208    0.0000 C.ar    1  UNL1        0.1650
     14 C           2.9061    1.0347    0.0000 C.ar    1  UNL1       -0.0474
     15 C           2.9061   -1.0347    0.0000 C.ar    1  UNL1       -0.0186
     16 C           2.0000    0.5208    0.0000 C.ar    1  UNL1       -0.0609
     17 C           2.0000   -0.5208    0.0000 C.ar    1  UNL1       -0.0582
     18 C           8.1923    2.0241    0.0000 C.3     1  UNL1        0.0790
     19 C           8.1923   -2.0241    0.0000 C.3     1  UNL1        0.0790
     20 H           6.4188    1.6546    0.0000 H       1  UNL1        0.0663
     21 H           6.4188   -1.6546    0.0000 H       1  UNL1        0.0692
     22 H           2.9132    1.6546    0.0000 H       1  UNL1        0.0626
     23 H           2.9132   -1.6546    0.0000 H       1  UNL1        0.0654
     24 H           1.4643    0.8329    0.0000 H       1  UNL1        0.0618
     25 H           1.4643   -0.8329    0.0000 H       1  UNL1        0.0619
     26 H           8.8123    2.0265    0.0000 H       1  UNL1        0.0660
     27 H           8.1899    2.6441    0.0000 H       1  UNL1        0.0660
     28 H           7.5723    2.0218    0.0000 H       1  UNL1        0.0660
     29 H           7.5723   -2.0218    0.0000 H       1  UNL1        0.0660
     30 H           8.1899   -2.6441    0.0000 H       1  UNL1        0.0660
     31 H           8.8123   -2.0265    0.0000 H       1  UNL1        0.0660
@<TRIPOS>BOND
     1     1     6   ar
     2     1     9   ar
     3     2    12    1
     4     2    18    1
     5     3    13    1
     6     3    19    1
     7     4     8    2
     8     5     6   ar
     9     5     8   ar
    10     5    10   ar
    11     6    11   ar
    12     7     8   ar
    13     7     9   ar
    14     7    14   ar
    15     9    15   ar
    16    10    12   ar
    17    10    20    1
    18    11    13   ar
    19    11    21    1
    20    12    13   ar
    21    14    16   ar
    22    14    22    1
    23    15    17   ar
    24    15    23    1
    25    16    17   ar
    26    16    24    1
    27    17    25    1
    28    18    26    1
    29    18    27    1
    30    18    28    1
    31    19    29    1
    32    19    30    1
    33    19    31    1
