@<TRIPOS>MOLECULE
IMPHY013814
 20 20 0 0 0
SMALL
GASTEIGER

@<TRIPOS>ATOM
      1 O           6.0010    0.9050    0.0000 O.3     1  UNL1       -0.5058
      2 O           2.5369    0.9050    0.0000 O.3     1  UNL1       -0.5058
      3 O           4.2690   -2.0950    0.0000 O.3     1  UNL1       -0.5065
      4 O           3.4030    2.4050    0.0000 O.2     1  UNL1       -0.2921
      5 C           4.2690    0.9050    0.0000 C.ar    1  UNL1        0.1000
      6 C           5.1350    0.4050    0.0000 C.ar    1  UNL1        0.1343
      7 C           3.4030    0.4050    0.0000 C.ar    1  UNL1        0.1343
      8 C           5.1350   -0.5950    0.0000 C.ar    1  UNL1        0.0222
      9 C           3.4030   -0.5950    0.0000 C.ar    1  UNL1        0.0222
     10 C           4.2690   -1.0950    0.0000 C.ar    1  UNL1        0.1238
     11 C           4.2690    1.9050    0.0000 C.2     1  UNL1        0.1671
     12 C           5.1350    2.4050    0.0000 C.3     1  UNL1       -0.0012
     13 H           5.6720   -0.9050    0.0000 H       1  UNL1        0.0691
     14 H           2.8660   -0.9050    0.0000 H       1  UNL1        0.0691
     15 H           5.4450    1.8681    0.0000 H       1  UNL1        0.0309
     16 H           5.6720    2.7150    0.0000 H       1  UNL1        0.0309
     17 H           4.8250    2.9419    0.0000 H       1  UNL1        0.0309
     18 H           6.5380    0.5950    0.0000 H       1  UNL1        0.2922
     19 H           2.0000    0.5950    0.0000 H       1  UNL1        0.2922
     20 H           3.7320   -2.4050    0.0000 H       1  UNL1        0.2921
@<TRIPOS>BOND
     1     1     6    1
     2     1    18    1
     3     2     7    1
     4     2    19    1
     5     3    10    1
     6     3    20    1
     7     4    11    2
     8     5     6   ar
     9     5     7   ar
    10     5    11    1
    11     6     8   ar
    12     7     9   ar
    13     8    10   ar
    14     8    13    1
    15     9    10   ar
    16     9    14    1
    17    11    12    1
    18    12    15    1
    19    12    16    1
    20    12    17    1
