@<TRIPOS>MOLECULE
IMPHY007034
 53 56 0 0 0
SMALL
GASTEIGER

@<TRIPOS>ATOM
      1 O           5.1350   -2.4276    0.0000 O.3     1  UNL1       -0.3313
      2 O           6.8671   -2.4276    0.0000 O.3     1  UNL1       -0.4572
      3 O           5.1350   -5.4276    0.0000 O.3     1  UNL1       -0.3864
      4 O           3.4030   -4.4276    0.0000 O.3     1  UNL1       -0.3865
      5 O           6.8671   -4.4276    0.0000 O.3     1  UNL1       -0.3829
      6 O           2.5369   -2.9276    0.0000 O.3     1  UNL1       -0.3924
      7 O           7.7331    2.0724    0.0000 O.2     1  UNL1       -0.1997
      8 O           5.1350   -1.4276    0.0000 O.3     1  UNL1       -0.5033
      9 O           5.1350    1.5724    0.0000 O.3     1  UNL1       -0.4995
     10 O           5.9793    5.1039    0.0000 O.3     1  UNL1       -0.5057
     11 O           9.5191    5.1175    0.0000 O.3     1  UNL1       -0.5063
     12 C           5.1350   -4.4276    0.0000 C.3     1  UNL1        0.1152
     13 C           4.2690   -3.9276    0.0000 C.3     1  UNL1        0.1120
     14 C           6.0010   -3.9276    0.0000 C.3     1  UNL1        0.1454
     15 C           4.2690   -2.9276    0.0000 C.3     1  UNL1        0.1140
     16 C           6.0010   -2.9276    0.0000 C.3     1  UNL1        0.2310
     17 C           3.4030   -2.4276    0.0000 C.3     1  UNL1        0.0731
     18 C           6.8671   -1.4276    0.0000 C.ar    1  UNL1        0.1652
     19 C           6.0010   -0.9276    0.0000 C.ar    1  UNL1        0.1594
     20 C           7.7331   -0.9276    0.0000 C.ar    1  UNL1       -0.0153
     21 C           6.8671    0.5724    0.0000 C.ar    1  UNL1        0.0865
     22 C           6.0010    0.0725    0.0000 C.ar    1  UNL1       -0.0003
     23 C           7.7331    0.0725    0.0000 C.ar    1  UNL1       -0.0418
     24 C           6.8671    1.5724    0.0000 C.ar    1  UNL1        0.4043
     25 C           6.0010    2.0724    0.0000 C.ar    1  UNL1        0.2238
     26 C           6.8671    3.5724    0.0000 C.ar    1  UNL1        0.1241
     27 C           7.7331    3.0724    0.0000 C.ar    1  UNL1        0.3708
     28 C           6.0010    3.0724    0.0000 C.ar    1  UNL1        0.0090
     29 C           6.8510    4.6140    0.0000 C.ar    1  UNL1        0.1366
     30 C           8.6431    3.5793    0.0000 C.ar    1  UNL1        0.0847
     31 C           8.6511    4.6209    0.0000 C.ar    1  UNL1        0.1293
     32 C           7.7490    5.1417    0.0000 C.ar    1  UNL1        0.0225
     33 H           5.6720   -4.7376    0.0000 H       1  UNL1        0.0648
     34 H           3.7320   -3.6176    0.0000 H       1  UNL1        0.0647
     35 H           6.5380   -3.6176    0.0000 H       1  UNL1        0.0683
     36 H           4.2690   -2.3076    0.0000 H       1  UNL1        0.0647
     37 H           6.0010   -2.3076    0.0000 H       1  UNL1        0.1084
     38 H           3.8015   -1.9526    0.0000 H       1  UNL1        0.0584
     39 H           3.0044   -1.9526    0.0000 H       1  UNL1        0.0584
     40 H           5.6720   -5.7376    0.0000 H       1  UNL1        0.2100
     41 H           3.4030   -5.0476    0.0000 H       1  UNL1        0.2100
     42 H           7.4040   -4.1175    0.0000 H       1  UNL1        0.2102
     43 H           2.0000   -2.6176    0.0000 H       1  UNL1        0.2095
     44 H           8.2700   -1.2376    0.0000 H       1  UNL1        0.0655
     45 H           5.4641    0.3824    0.0000 H       1  UNL1        0.0664
     46 H           8.2700    0.3824    0.0000 H       1  UNL1        0.0628
     47 H           5.4641    3.3824    0.0000 H       1  UNL1        0.0667
     48 H           4.5981   -1.1176    0.0000 H       1  UNL1        0.2923
     49 H           9.1764    3.2631    0.0000 H       1  UNL1        0.0749
     50 H           7.7466    5.7617    0.0000 H       1  UNL1        0.0691
     51 H           4.5981    1.8824    0.0000 H       1  UNL1        0.2925
     52 H           5.9721    5.7239    0.0000 H       1  UNL1        0.2922
     53 H           9.5214    5.7376    0.0000 H       1  UNL1        0.2921
@<TRIPOS>UNITY_ATOM_ATTR
7 1
charge 1
@<TRIPOS>BOND
     1     1    15    1
     2     1    16    1
     3     2    16    1
     4     2    18    1
     5     3    12    1
     6     3    40    1
     7     4    13    1
     8     4    41    1
     9     5    14    1
    10     5    42    1
    11     6    17    1
    12     6    43    1
    13     7    24   ar
    14     7    27   ar
    15     8    19    1
    16     8    48    1
    17     9    25    1
    18     9    51    1
    19    10    29    1
    20    10    52    1
    21    11    31    1
    22    11    53    1
    23    12    13    1
    24    12    14    1
    25    12    33    1
    26    13    15    1
    27    13    34    1
    28    14    16    1
    29    14    35    1
    30    15    17    1
    31    15    36    1
    32    16    37    1
    33    17    38    1
    34    17    39    1
    35    18    19   ar
    36    18    20   ar
    37    19    22   ar
    38    20    23   ar
    39    20    44    1
    40    21    22   ar
    41    21    23   ar
    42    21    24    1
    43    22    45    1
    44    23    46    1
    45    24    25   ar
    46    25    28   ar
    47    26    27   ar
    48    26    28   ar
    49    26    29   ar
    50    27    30   ar
    51    28    47    1
    52    29    32   ar
    53    30    31   ar
    54    30    49    1
    55    31    32   ar
    56    32    50    1
