@<TRIPOS>MOLECULE
IMPHY008574
 29 29 0 0 0
SMALL
GASTEIGER

@<TRIPOS>ATOM
      1 O           6.3203    1.2172    0.0000 O.3     1  UNL1       -0.4804
      2 O           4.5883    1.2172    0.0000 O.2     1  UNL1       -0.2507
      3 O           2.0000   -0.9217    0.0000 O.2     1  UNL1       -0.3007
      4 C           4.6453   -0.8706    0.0000 C.3     1  UNL1       -0.0189
      5 C           5.4543   -0.2828    0.0000 C.3     1  UNL1        0.0623
      6 C           6.2633   -0.8706    0.0000 C.3     1  UNL1       -0.0307
      7 C           4.9543   -1.8217    0.0000 C.3     1  UNL1       -0.0486
      8 C           5.9543   -1.8217    0.0000 C.3     1  UNL1       -0.0494
      9 C           3.6942   -0.5616    0.0000 C.3     1  UNL1        0.0152
     10 C           7.2144   -0.5616    0.0000 C.3     1  UNL1       -0.0617
     11 C           5.4543    0.7172    0.0000 C.2     1  UNL1        0.3084
     12 C           3.4863    0.4166    0.0000 C.3     1  UNL1       -0.0557
     13 C           2.9511   -1.2307    0.0000 C.2     1  UNL1        0.1234
     14 H           4.0442   -1.4716    0.0000 H       1  UNL1        0.0315
     15 H           4.9018   -0.0014    0.0000 H       1  UNL1        0.0419
     16 H           6.7017   -1.3090    0.0000 H       1  UNL1        0.0306
     17 H           4.3478   -1.9506    0.0000 H       1  UNL1        0.0268
     18 H           5.0191   -2.4383    0.0000 H       1  UNL1        0.0268
     19 H           5.8895   -2.4383    0.0000 H       1  UNL1        0.0268
     20 H           6.5607   -1.9506    0.0000 H       1  UNL1        0.0268
     21 H           3.1046   -0.3700    0.0000 H       1  UNL1        0.0375
     22 H           7.4059   -1.1513    0.0000 H       1  UNL1        0.0233
     23 H           7.8040   -0.3700    0.0000 H       1  UNL1        0.0233
     24 H           7.0228    0.0281    0.0000 H       1  UNL1        0.0233
     25 H           4.0927    0.5455    0.0000 H       1  UNL1        0.0236
     26 H           3.3574    1.0230    0.0000 H       1  UNL1        0.0236
     27 H           2.8798    0.2876    0.0000 H       1  UNL1        0.0236
     28 H           3.0800   -1.8372    0.0000 H       1  UNL1        0.1029
     29 H           6.3203    1.8372    0.0000 H       1  UNL1        0.2951
@<TRIPOS>BOND
     1     1    11    1
     2     1    29    1
     3     2    11    2
     4     3    13    2
     5     4     5    1
     6     4     7    1
     7     4     9    1
     8     4    14    1
     9     5     6    1
    10     5    11    1
    11     5    15    1
    12     6     8    1
    13     6    10    1
    14     6    16    1
    15     7     8    1
    16     7    17    1
    17     7    18    1
    18     8    19    1
    19     8    20    1
    20     9    12    1
    21     9    13    1
    22     9    21    1
    23    10    22    1
    24    10    23    1
    25    10    24    1
    26    12    25    1
    27    12    26    1
    28    12    27    1
    29    13    28    1
