@<TRIPOS>MOLECULE
IMPHY012377
 34 36 0 0 0
SMALL
GASTEIGER

@<TRIPOS>ATOM
      1 O           3.7817    1.2741    0.0000 O.3     1  UNL1       -0.4944
      2 O           8.1663   -0.2636    0.0000 O.3     1  UNL1       -0.4908
      3 O           8.1821    1.7846    0.0000 O.3     1  UNL1       -0.5033
      4 O           2.0000   -1.7846    0.0000 O.3     1  UNL1       -0.5066
      5 C           4.6641   -0.2605    0.0000 C.ar    1  UNL1        0.0318
      6 C           5.5301    0.2395    0.0000 C.ar    1  UNL1       -0.0030
      7 C           6.3961   -0.2605    0.0000 C.ar    1  UNL1        0.0281
      8 C           4.6641   -1.2605    0.0000 C.ar    1  UNL1       -0.0103
      9 C           3.7702    0.2742    0.0000 C.ar    1  UNL1        0.1318
     10 C           6.3961   -1.2605    0.0000 C.ar    1  UNL1       -0.0498
     11 C           5.5301   -1.7605    0.0000 C.ar    1  UNL1       -0.0531
     12 C           7.3062    0.2464    0.0000 C.ar    1  UNL1        0.1689
     13 C           5.5141    1.2810    0.0000 C.ar    1  UNL1       -0.0497
     14 C           3.7702   -1.7951    0.0000 C.ar    1  UNL1       -0.0122
     15 C           7.3142    1.2880    0.0000 C.ar    1  UNL1        0.1591
     16 C           2.8641   -0.2397    0.0000 C.ar    1  UNL1        0.0222
     17 C           6.4121    1.8088    0.0000 C.ar    1  UNL1       -0.0159
     18 C           2.8641   -1.2813    0.0000 C.ar    1  UNL1        0.1209
     19 C           2.9215    1.7841    0.0000 C.3     1  UNL1        0.0788
     20 C           9.0381    0.2263    0.0000 C.3     1  UNL1        0.0790
     21 H           6.9331   -1.5705    0.0000 H       1  UNL1        0.0625
     22 H           5.5301   -2.3805    0.0000 H       1  UNL1        0.0624
     23 H           4.9736    1.5848    0.0000 H       1  UNL1        0.0625
     24 H           3.7773   -2.4151    0.0000 H       1  UNL1        0.0660
     25 H           2.3284    0.0724    0.0000 H       1  UNL1        0.0691
     26 H           6.4097    2.4288    0.0000 H       1  UNL1        0.0655
     27 H           8.1845    2.4046    0.0000 H       1  UNL1        0.2923
     28 H           3.2377    2.3174    0.0000 H       1  UNL1        0.0660
     29 H           2.3882    2.1003    0.0000 H       1  UNL1        0.0660
     30 H           2.6054    1.2508    0.0000 H       1  UNL1        0.0660
     31 H           2.0024   -2.4046    0.0000 H       1  UNL1        0.2921
     32 H           9.3419   -0.3141    0.0000 H       1  UNL1        0.0660
     33 H           9.5786    0.5301    0.0000 H       1  UNL1        0.0660
     34 H           8.7343    0.7668    0.0000 H       1  UNL1        0.0660
@<TRIPOS>BOND
     1     1     9    1
     2     1    19    1
     3     2    12    1
     4     2    20    1
     5     3    15    1
     6     3    27    1
     7     4    18    1
     8     4    31    1
     9     5     6   ar
    10     5     8   ar
    11     5     9   ar
    12     6     7   ar
    13     6    13   ar
    14     7    10   ar
    15     7    12   ar
    16     8    11   ar
    17     8    14   ar
    18     9    16   ar
    19    10    11   ar
    20    10    21    1
    21    11    22    1
    22    12    15   ar
    23    13    17   ar
    24    13    23    1
    25    14    18   ar
    26    14    24    1
    27    15    17   ar
    28    16    18   ar
    29    16    25    1
    30    17    26    1
    31    19    28    1
    32    19    29    1
    33    19    30    1
    34    20    32    1
    35    20    33    1
    36    20    34    1
