@<TRIPOS>MOLECULE
IMPHY008544
 102 108 0 0 0
SMALL
GASTEIGER

@<TRIPOS>ATOM
      1 O           9.4982    3.1674    0.0000 O.3     1  UNL1       -0.3877
      2 O           9.5222    0.0916    0.0000 O.3     1  UNL1       -0.3875
      3 O           7.7331   -2.0361    0.0000 O.3     1  UNL1       -0.3453
      4 O           6.0260    1.1259    0.0000 O.2     1  UNL1       -0.3003
      5 O           5.8941    6.6811    0.0000 O.3     1  UNL1       -0.4571
      6 O           6.0010   -2.0361    0.0000 O.3     1  UNL1       -0.3431
      7 O           6.5292    8.3461    0.0000 O.2     1  UNL1       -0.2456
      8 O           7.7331   -4.0361    0.0000 O.3     1  UNL1       -0.3841
      9 O           6.0010   -5.0361    0.0000 O.3     1  UNL1       -0.3401
     10 O           4.2690   -4.0361    0.0000 O.3     1  UNL1       -0.3866
     11 O           4.2690   -5.0361    0.0000 O.3     1  UNL1       -0.3405
     12 O           6.0010   -7.0361    0.0000 O.3     1  UNL1       -0.3841
     13 O           4.2690   -8.0361    0.0000 O.3     1  UNL1       -0.3864
     14 O           2.5369   -7.0361    0.0000 O.3     1  UNL1       -0.3865
     15 O           2.5369   -4.0361    0.0000 O.3     1  UNL1       -0.3924
     16 C           8.6303    3.6641    0.0000 C.3     1  UNL1        0.0751
     17 C           8.6342    2.6641    0.0000 C.3     1  UNL1       -0.0077
     18 C           7.7624    4.1608    0.0000 C.3     1  UNL1        0.0036
     19 C           7.7701    2.1608    0.0000 C.3     1  UNL1       -0.0208
     20 C           7.7580    1.1192    0.0000 C.3     1  UNL1        0.0579
     21 C           8.6581    0.5949    0.0000 C.3     1  UNL1        0.0807
     22 C           7.9678    5.1334    0.0000 C.3     1  UNL1       -0.0081
     23 C           6.8983    3.6574    0.0000 C.3     1  UNL1       -0.0442
     24 C           6.9021    2.6574    0.0000 C.3     1  UNL1       -0.0483
     25 C           9.3647    4.3340    0.0000 C.3     1  UNL1       -0.0226
     26 C           9.5461    2.1608    0.0000 C.3     1  UNL1       -0.0447
     27 C           9.5581    1.1192    0.0000 C.3     1  UNL1       -0.0226
     28 C           8.9561    5.2402    0.0000 C.3     1  UNL1       -0.0432
     29 C           6.8081    0.5949    0.0000 C.3     1  UNL1       -0.0357
     30 C           8.6706   -0.4900    0.0000 C.3     1  UNL1        0.0034
     31 C           6.8944    4.6574    0.0000 C.3     1  UNL1       -0.0564
     32 C           6.7956   -0.4900    0.0000 C.3     1  UNL1       -0.0254
     33 C           7.7331   -1.0361    0.0000 C.3     1  UNL1        0.0645
     34 C           6.8939    1.6225    0.0000 C.2     1  UNL1        0.1294
     35 C           7.2971    5.8751    0.0000 C.2     1  UNL1       -0.0222
     36 C           6.3028    5.7684    0.0000 C.3     1  UNL1        0.1147
     37 C           7.5029    6.8537    0.0000 C.2     1  UNL1        0.0252
     38 C           6.8671   -2.5361    0.0000 C.3     1  UNL1        0.1881
     39 C           6.6358    7.3518    0.0000 C.2     1  UNL1        0.3323
     40 C           6.8671   -3.5361    0.0000 C.3     1  UNL1        0.1345
     41 C           6.0010   -4.0361    0.0000 C.3     1  UNL1        0.1205
     42 C           5.1350   -2.5361    0.0000 C.3     1  UNL1        0.0873
     43 C           5.1350   -3.5361    0.0000 C.3     1  UNL1        0.1098
     44 C           4.2690   -2.0361    0.0000 C.3     1  UNL1       -0.0361
     45 C           5.1350   -5.5361    0.0000 C.3     1  UNL1        0.1884
     46 C           5.1350   -6.5361    0.0000 C.3     1  UNL1        0.1341
     47 C           4.2690   -7.0361    0.0000 C.3     1  UNL1        0.1141
     48 C           3.4030   -5.5361    0.0000 C.3     1  UNL1        0.1130
     49 C           3.4030   -6.5361    0.0000 C.3     1  UNL1        0.1119
     50 C           2.5369   -5.0361    0.0000 C.3     1  UNL1        0.0730
     51 H           9.3653    3.0976    0.0000 H       1  UNL1        0.0332
     52 H           8.5045    1.7329    0.0000 H       1  UNL1        0.0315
     53 H           8.1885    5.7128    0.0000 H       1  UNL1        0.0353
     54 H           6.6840    4.2392    0.0000 H       1  UNL1        0.0272
     55 H           6.2881    3.5474    0.0000 H       1  UNL1        0.0272
     56 H           6.2911    2.7627    0.0000 H       1  UNL1        0.0269
     57 H           6.6923    2.0740    0.0000 H       1  UNL1        0.0269
     58 H           9.7321    3.8346    0.0000 H       1  UNL1        0.0293
     59 H           9.9000    4.6468    0.0000 H       1  UNL1        0.0293
     60 H          10.1581    2.0617    0.0000 H       1  UNL1        0.0270
     61 H           9.7484    2.7468    0.0000 H       1  UNL1        0.0270
     62 H           9.7739    0.5380    0.0000 H       1  UNL1        0.0293
     63 H          10.1677    1.2324    0.0000 H       1  UNL1        0.0293
     64 H           9.5450    5.4343    0.0000 H       1  UNL1        0.0272
     65 H           8.8251    5.8462    0.0000 H       1  UNL1        0.0272
     66 H           6.6058    1.1810    0.0000 H       1  UNL1        0.0276
     67 H           6.1961    0.4959    0.0000 H       1  UNL1        0.0276
     68 H           8.8864   -1.0712    0.0000 H       1  UNL1        0.0318
     69 H           9.2802   -0.3769    0.0000 H       1  UNL1        0.0318
     70 H           7.2023    5.1955    0.0000 H       1  UNL1        0.0236
     71 H           6.3563    4.9653    0.0000 H       1  UNL1        0.0236
     72 H           6.5865    4.1193    0.0000 H       1  UNL1        0.0236
     73 H           6.1860   -0.3769    0.0000 H       1  UNL1        0.0290
     74 H           6.5798   -1.0712    0.0000 H       1  UNL1        0.0290
     75 H           8.2706   -1.3451    0.0000 H       1  UNL1        0.0598
     76 H          10.0340    3.4795    0.0000 H       1  UNL1        0.2102
     77 H           6.3582    1.9346    0.0000 H       1  UNL1        0.1033
     78 H          10.0603    0.3995    0.0000 H       1  UNL1        0.2102
     79 H           5.7136    5.5756    0.0000 H       1  UNL1        0.0746
     80 H           6.4330    5.1623    0.0000 H       1  UNL1        0.0746
     81 H           8.0688    7.1070    0.0000 H       1  UNL1        0.0689
     82 H           7.4040   -2.8461    0.0000 H       1  UNL1        0.0937
     83 H           6.8671   -4.1561    0.0000 H       1  UNL1        0.0671
     84 H           5.4641   -4.3461    0.0000 H       1  UNL1        0.0651
     85 H           5.1350   -1.9161    0.0000 H       1  UNL1        0.0621
     86 H           4.5981   -3.2261    0.0000 H       1  UNL1        0.0646
     87 H           7.7331   -4.6561    0.0000 H       1  UNL1        0.2101
     88 H           4.5790   -1.4992    0.0000 H       1  UNL1        0.0255
     89 H           3.7320   -1.7261    0.0000 H       1  UNL1        0.0255
     90 H           3.9590   -2.5731    0.0000 H       1  UNL1        0.0255
     91 H           3.7320   -3.7261    0.0000 H       1  UNL1        0.2100
     92 H           5.1350   -4.9161    0.0000 H       1  UNL1        0.0938
     93 H           5.1350   -7.1561    0.0000 H       1  UNL1        0.0671
     94 H           3.7320   -7.3461    0.0000 H       1  UNL1        0.0648
     95 H           3.4030   -4.9161    0.0000 H       1  UNL1        0.0647
     96 H           2.8660   -6.2261    0.0000 H       1  UNL1        0.0647
     97 H           6.0010   -7.6561    0.0000 H       1  UNL1        0.2101
     98 H           1.9264   -4.9285    0.0000 H       1  UNL1        0.0584
     99 H           2.3249   -5.6187    0.0000 H       1  UNL1        0.0584
    100 H           3.7320   -8.3461    0.0000 H       1  UNL1        0.2100
    101 H           2.0000   -6.7261    0.0000 H       1  UNL1        0.2100
    102 H           2.0000   -3.7261    0.0000 H       1  UNL1        0.2095
@<TRIPOS>BOND
     1    16     1    1
     2     1    76    1
     3    21     2    1
     4     2    78    1
     5    33     3    1
     6    38     3    1
     7     4    34    2
     8     5    36    1
     9     5    39    1
    10     6    38    1
    11     6    42    1
    12     7    39    2
    13    40     8    1
    14     8    87    1
    15    41     9    1
    16    45     9    1
    17    43    10    1
    18    10    91    1
    19    11    45    1
    20    11    48    1
    21    46    12    1
    22    12    97    1
    23    47    13    1
    24    13   100    1
    25    49    14    1
    26    14   101    1
    27    15    50    1
    28    15   102    1
    29    16    17    1
    30    16    18    1
    31    16    25    1
    32    17    19    1
    33    17    26    1
    34    17    51    1
    35    18    22    1
    36    18    23    1
    37    18    31    1
    38    19    20    1
    39    19    24    1
    40    19    52    1
    41    20    21    1
    42    20    29    1
    43    20    34    1
    44    21    27    1
    45    21    30    1
    46    22    28    1
    47    22    35    1
    48    22    53    1
    49    23    24    1
    50    23    54    1
    51    23    55    1
    52    24    56    1
    53    24    57    1
    54    25    28    1
    55    25    58    1
    56    25    59    1
    57    26    27    1
    58    26    60    1
    59    26    61    1
    60    27    62    1
    61    27    63    1
    62    28    64    1
    63    28    65    1
    64    29    32    1
    65    29    66    1
    66    29    67    1
    67    30    33    1
    68    30    68    1
    69    30    69    1
    70    31    70    1
    71    31    71    1
    72    31    72    1
    73    32    33    1
    74    32    73    1
    75    32    74    1
    76    33    75    1
    77    34    77    1
    78    35    36    1
    79    35    37    2
    80    36    79    1
    81    36    80    1
    82    37    39    1
    83    37    81    1
    84    38    40    1
    85    38    82    1
    86    40    41    1
    87    40    83    1
    88    41    43    1
    89    41    84    1
    90    42    43    1
    91    42    44    1
    92    42    85    1
    93    43    86    1
    94    44    88    1
    95    44    89    1
    96    44    90    1
    97    45    46    1
    98    45    92    1
    99    46    47    1
   100    46    93    1
   101    47    49    1
   102    47    94    1
   103    48    49    1
   104    48    50    1
   105    48    95    1
   106    49    96    1
   107    50    98    1
   108    50    99    1
