@<TRIPOS>MOLECULE
IMPHY009849
 31 31 0 0 0
SMALL
GASTEIGER

@<TRIPOS>ATOM
      1 O           2.8660   -3.2500    0.0000 O.3     1  UNL1       -0.4951
      2 C           3.7320    1.2500    0.0000 C.3     1  UNL1       -0.0491
      3 C           3.7320    2.2500    0.0000 C.3     1  UNL1       -0.0530
      4 C           2.8660    0.7500    0.0000 C.3     1  UNL1       -0.0277
      5 C           4.5981    2.7500    0.0000 C.3     1  UNL1       -0.0559
      6 C           2.8660   -0.2500    0.0000 C.ar    1  UNL1       -0.0471
      7 C           4.5981    3.7500    0.0000 C.3     1  UNL1       -0.0653
      8 C           3.7320   -0.7500    0.0000 C.ar    1  UNL1       -0.0551
      9 C           2.0000   -0.7500    0.0000 C.ar    1  UNL1       -0.0551
     10 C           3.7320   -1.7500    0.0000 C.ar    1  UNL1       -0.0197
     11 C           2.0000   -1.7500    0.0000 C.ar    1  UNL1       -0.0197
     12 C           2.8660   -2.2500    0.0000 C.ar    1  UNL1        0.1201
     13 C           2.0000   -3.7500    0.0000 C.3     1  UNL1        0.0788
     14 H           3.9441    0.6674    0.0000 H       1  UNL1        0.0268
     15 H           4.3426    1.3577    0.0000 H       1  UNL1        0.0268
     16 H           3.5200    2.8326    0.0000 H       1  UNL1        0.0265
     17 H           3.1215    2.1423    0.0000 H       1  UNL1        0.0265
     18 H           2.6540    1.3326    0.0000 H       1  UNL1        0.0313
     19 H           2.2554    0.6423    0.0000 H       1  UNL1        0.0313
     20 H           4.8101    2.1674    0.0000 H       1  UNL1        0.0263
     21 H           5.2087    2.8577    0.0000 H       1  UNL1        0.0263
     22 H           5.2181    3.7500    0.0000 H       1  UNL1        0.0230
     23 H           4.5981    4.3700    0.0000 H       1  UNL1        0.0230
     24 H           3.9781    3.7500    0.0000 H       1  UNL1        0.0230
     25 H           4.2690   -0.4400    0.0000 H       1  UNL1        0.0621
     26 H           1.4631   -0.4400    0.0000 H       1  UNL1        0.0621
     27 H           4.2690   -2.0600    0.0000 H       1  UNL1        0.0654
     28 H           1.4631   -2.0600    0.0000 H       1  UNL1        0.0654
     29 H           1.6900   -3.2131    0.0000 H       1  UNL1        0.0660
     30 H           1.4631   -4.0600    0.0000 H       1  UNL1        0.0660
     31 H           2.3100   -4.2869    0.0000 H       1  UNL1        0.0660
@<TRIPOS>BOND
     1     1    12    1
     2     1    13    1
     3     2     3    1
     4     2     4    1
     5     2    14    1
     6     2    15    1
     7     3     5    1
     8     3    16    1
     9     3    17    1
    10     4     6    1
    11     4    18    1
    12     4    19    1
    13     5     7    1
    14     5    20    1
    15     5    21    1
    16     6     8   ar
    17     6     9   ar
    18     7    22    1
    19     7    23    1
    20     7    24    1
    21     8    10   ar
    22     8    25    1
    23     9    11   ar
    24     9    26    1
    25    10    12   ar
    26    10    27    1
    27    11    12   ar
    28    11    28    1
    29    13    29    1
    30    13    30    1
    31    13    31    1
