@<TRIPOS>MOLECULE
IMPHY010325
 20 20 0 0 0
SMALL
GASTEIGER

@<TRIPOS>ATOM
      1 O           2.0000   -2.5000    0.0000 O.3     1  UNL1       -0.5068
      2 O           5.4641    2.5000    0.0000 O.3     1  UNL1       -0.4775
      3 O           3.7320    2.5000    0.0000 O.2     1  UNL1       -0.2458
      4 C           3.7320   -0.5000    0.0000 C.ar    1  UNL1       -0.0214
      5 C           2.8660   -1.0000    0.0000 C.ar    1  UNL1       -0.0130
      6 C           4.5981   -1.0000    0.0000 C.ar    1  UNL1       -0.0544
      7 C           2.8660   -2.0000    0.0000 C.ar    1  UNL1        0.1174
      8 C           4.5981   -2.0000    0.0000 C.ar    1  UNL1       -0.0578
      9 C           3.7320    0.5000    0.0000 C.2     1  UNL1       -0.0477
     10 C           3.7320   -2.5000    0.0000 C.ar    1  UNL1       -0.0201
     11 C           4.5981    1.0000    0.0000 C.2     1  UNL1        0.0229
     12 C           4.5981    2.0000    0.0000 C.2     1  UNL1        0.3296
     13 H           2.3291   -0.6900    0.0000 H       1  UNL1        0.0660
     14 H           5.1350   -0.6900    0.0000 H       1  UNL1        0.0623
     15 H           5.1350   -2.3100    0.0000 H       1  UNL1        0.0619
     16 H           3.1951    0.8100    0.0000 H       1  UNL1        0.0626
     17 H           3.7320   -3.1200    0.0000 H       1  UNL1        0.0654
     18 H           5.1350    0.6900    0.0000 H       1  UNL1        0.0689
     19 H           2.0000   -3.1200    0.0000 H       1  UNL1        0.2921
     20 H           5.4641    3.1200    0.0000 H       1  UNL1        0.2954
@<TRIPOS>BOND
     1     1     7    1
     2     1    19    1
     3     2    12    1
     4     2    20    1
     5     3    12    2
     6     4     5   ar
     7     4     6   ar
     8     4     9    1
     9     5     7   ar
    10     5    13    1
    11     6     8   ar
    12     6    14    1
    13     7    10   ar
    14     8    10   ar
    15     8    15    1
    16     9    11    2
    17     9    16    1
    18    10    17    1
    19    11    12    1
    20    11    18    1
