@<TRIPOS>MOLECULE
IMPHY003380
 16 15 0 0 0
SMALL
GASTEIGER

@<TRIPOS>ATOM
      1 S           2.5369    0.3100    0.0000 S.3     1  UNL1       -0.1774
      2 S           3.4030   -1.1900    0.0000 S.3     1  UNL1       -0.1774
      3 O           6.0010    0.3100    0.0000 O.3     1  UNL1       -0.4804
      4 O           5.1350    1.8100    0.0000 O.2     1  UNL1       -0.2506
      5 C           4.2690    0.3100    0.0000 C.3     1  UNL1        0.0737
      6 C           3.4030    0.8100    0.0000 C.3     1  UNL1        0.0044
      7 C           4.2690   -0.6900    0.0000 C.3     1  UNL1        0.0044
      8 C           5.1350    0.8100    0.0000 C.2     1  UNL1        0.3094
      9 H           4.2690    0.9300    0.0000 H       1  UNL1        0.0429
     10 H           3.8015    1.2850    0.0000 H       1  UNL1        0.0382
     11 H           3.0044    1.2850    0.0000 H       1  UNL1        0.0382
     12 H           4.4810   -1.2726    0.0000 H       1  UNL1        0.0382
     13 H           4.8796   -0.5823    0.0000 H       1  UNL1        0.0382
     14 H           2.0000    0.6200    0.0000 H       1  UNL1        0.1017
     15 H           3.4030   -1.8100    0.0000 H       1  UNL1        0.1017
     16 H           6.5380    0.6200    0.0000 H       1  UNL1        0.2951
@<TRIPOS>BOND
     1     1     6    1
     2     1    14    1
     3     2     7    1
     4     2    15    1
     5     3     8    1
     6     3    16    1
     7     4     8    2
     8     5     6    1
     9     5     7    1
    10     5     8    1
    11     5     9    1
    12     6    10    1
    13     6    11    1
    14     7    12    1
    15     7    13    1
