@<TRIPOS>MOLECULE
IMPHY006821
 38 40 0 0 0
SMALL
GASTEIGER

@<TRIPOS>ATOM
      1 O           5.2658    2.8697    0.0000 O.2     1  UNL1       -0.2924
      2 C           2.9986   -0.3765    0.0000 C.3     1  UNL1       -0.0152
      3 C           5.8153   -0.2913    0.0000 C.3     1  UNL1       -0.0206
      4 C           4.4164   -0.3001    0.0000 C.3     1  UNL1       -0.0100
      5 C           4.6752    0.6658    0.0000 C.3     1  UNL1        0.0311
      6 C           5.3659   -1.1800    0.0000 C.3     1  UNL1       -0.0346
      7 C           3.5009   -1.2364    0.0000 C.3     1  UNL1       -0.0461
      8 C           4.4439   -1.5565    0.0000 C.3     1  UNL1       -0.0492
      9 C           3.1954    1.3176    0.0000 C.2     1  UNL1       -0.0654
     10 C           2.0000   -0.4302    0.0000 C.3     1  UNL1       -0.0583
     11 C           4.5967    2.1266    0.0000 C.2     1  UNL1        0.1599
     12 C           6.0440   -1.9150    0.0000 C.3     1  UNL1       -0.0436
     13 C           3.6022    2.2311    0.0000 C.2     1  UNL1       -0.0196
     14 C           2.2173    1.1096    0.0000 C.3     1  UNL1       -0.0431
     15 C           7.0195   -1.6953    0.0000 C.3     1  UNL1       -0.0624
     16 C           5.7465   -2.8697    0.0000 C.3     1  UNL1       -0.0624
     17 H           6.4227   -0.1668    0.0000 H       1  UNL1        0.0316
     18 H           4.1964   -1.1212    0.0000 H       1  UNL1        0.0354
     19 H           5.2299    0.9428    0.0000 H       1  UNL1        0.0389
     20 H           5.2312   -1.7852    0.0000 H       1  UNL1        0.0306
     21 H           2.8991   -1.3858    0.0000 H       1  UNL1        0.0271
     22 H           3.4749   -1.8558    0.0000 H       1  UNL1        0.0271
     23 H           4.0874   -2.0638    0.0000 H       1  UNL1        0.0268
     24 H           4.8304   -2.0413    0.0000 H       1  UNL1        0.0268
     25 H           1.9667    0.1889    0.0000 H       1  UNL1        0.0235
     26 H           1.3809   -0.4636    0.0000 H       1  UNL1        0.0235
     27 H           2.0333   -1.0493    0.0000 H       1  UNL1        0.0235
     28 H           6.2284   -1.3231    0.0000 H       1  UNL1        0.0298
     29 H           3.2922    2.7680    0.0000 H       1  UNL1        0.0652
     30 H           2.0884    1.7161    0.0000 H       1  UNL1        0.0275
     31 H           1.6108    0.9807    0.0000 H       1  UNL1        0.0275
     32 H           2.3462    0.5032    0.0000 H       1  UNL1        0.0275
     33 H           7.1557   -2.3001    0.0000 H       1  UNL1        0.0232
     34 H           7.6244   -1.5590    0.0000 H       1  UNL1        0.0232
     35 H           6.8833   -1.0904    0.0000 H       1  UNL1        0.0232
     36 H           5.1545   -2.6853    0.0000 H       1  UNL1        0.0232
     37 H           5.5620   -3.4616    0.0000 H       1  UNL1        0.0232
     38 H           6.3384   -3.0542    0.0000 H       1  UNL1        0.0232
@<TRIPOS>BOND
     1     1    11    2
     2     2     4    1
     3     2     5    1
     4     2     7    1
     5     2    10    1
     6     3     4    1
     7     3     5    1
     8     3     6    1
     9     3    17    1
    10     4     9    1
    11     4    18    1
    12     5    11    1
    13     5    19    1
    14     6     8    1
    15     6    12    1
    16     6    20    1
    17     7     8    1
    18     7    21    1
    19     7    22    1
    20     8    23    1
    21     8    24    1
    22     9    13    2
    23     9    14    1
    24    10    25    1
    25    10    26    1
    26    10    27    1
    27    11    13    1
    28    12    15    1
    29    12    16    1
    30    12    28    1
    31    13    29    1
    32    14    30    1
    33    14    31    1
    34    14    32    1
    35    15    33    1
    36    15    34    1
    37    15    35    1
    38    16    36    1
    39    16    37    1
    40    16    38    1
