@<TRIPOS>MOLECULE
IMPHY011446
 145 148 0 0 0
SMALL
GASTEIGER

@<TRIPOS>ATOM
      1 O          21.0524   -3.6598    0.0000 O.3     1  UNL1       -0.4610
      2 O          20.1922   -2.1564    0.0000 O.2     1  UNL1       -0.2508
      3 C          26.4455   -0.6074    0.0000 C.3     1  UNL1       -0.0259
      4 C          26.4455   -1.6074    0.0000 C.3     1  UNL1       -0.0320
      5 C          25.5795   -2.1074    0.0000 C.3     1  UNL1       -0.0307
      6 C          24.7135   -1.6074    0.0000 C.3     1  UNL1       -0.0285
      7 C          27.3917   -0.3027    0.0000 C.3     1  UNL1       -0.0328
      8 C          25.5795   -0.1074    0.0000 C.3     1  UNL1       -0.0468
      9 C          23.8034   -2.1143    0.0000 C.3     1  UNL1       -0.0077
     10 C          27.3917   -1.9122    0.0000 C.3     1  UNL1       -0.0492
     11 C          24.7135   -0.6074    0.0000 C.3     1  UNL1       -0.0486
     12 C          27.9753   -1.1074    0.0000 C.3     1  UNL1       -0.0492
     13 C          25.5955   -3.1489    0.0000 C.3     1  UNL1       -0.0311
     14 C          27.7024    0.6478    0.0000 C.3     1  UNL1       -0.0405
     15 C          26.4455    0.3926    0.0000 C.3     1  UNL1       -0.0590
     16 C          23.7954   -3.1559    0.0000 C.2     1  UNL1       -0.0638
     17 C          22.8766   -1.5502    0.0000 C.3     1  UNL1       -0.0403
     18 C          24.6975   -3.6767    0.0000 C.2     1  UNL1       -0.0838
     19 C          23.8112   -1.1143    0.0000 C.3     1  UNL1       -0.0556
     20 C          22.8600   -3.7056    0.0000 C.3     1  UNL1        0.0061
     21 C          21.9287   -2.0781    0.0000 C.3     1  UNL1       -0.0146
     22 C          28.6809    0.8540    0.0000 C.3     1  UNL1       -0.0499
     23 C          21.9204   -3.1631    0.0000 C.3     1  UNL1        0.1068
     24 C          27.0345    1.3921    0.0000 C.3     1  UNL1       -0.0621
     25 C          28.9916    1.8046    0.0000 C.3     1  UNL1       -0.0497
     26 C          29.9701    2.0108    0.0000 C.3     1  UNL1       -0.0389
     27 C          30.2807    2.9613    0.0000 C.3     1  UNL1       -0.0439
     28 C          30.6379    1.2665    0.0000 C.3     1  UNL1       -0.0528
     29 C          20.1883   -3.1564    0.0000 C.2     1  UNL1        0.3073
     30 C          31.2592    3.1675    0.0000 C.3     1  UNL1       -0.0624
     31 C          29.6129    3.7056    0.0000 C.3     1  UNL1       -0.0624
     32 C          31.6164    1.4727    0.0000 C.3     1  UNL1       -0.0650
     33 C          19.3204   -3.6531    0.0000 C.3     1  UNL1        0.0449
     34 C          18.4563   -3.1498    0.0000 C.3     1  UNL1       -0.0430
     35 C          17.5883   -3.6464    0.0000 C.3     1  UNL1       -0.0526
     36 C          16.7242   -3.1431    0.0000 C.3     1  UNL1       -0.0530
     37 C          15.8563   -3.6397    0.0000 C.3     1  UNL1       -0.0531
     38 C          14.9922   -3.1364    0.0000 C.3     1  UNL1       -0.0531
     39 C          14.1243   -3.6331    0.0000 C.3     1  UNL1       -0.0531
     40 C          13.2602   -3.1297    0.0000 C.3     1  UNL1       -0.0531
     41 C          12.3922   -3.6264    0.0000 C.3     1  UNL1       -0.0531
     42 C          11.5281   -3.1230    0.0000 C.3     1  UNL1       -0.0531
     43 C          10.6602   -3.6197    0.0000 C.3     1  UNL1       -0.0531
     44 C           9.7961   -3.1164    0.0000 C.3     1  UNL1       -0.0531
     45 C           8.9282   -3.6130    0.0000 C.3     1  UNL1       -0.0531
     46 C           8.0641   -3.1097    0.0000 C.3     1  UNL1       -0.0531
     47 C           7.1961   -3.6064    0.0000 C.3     1  UNL1       -0.0531
     48 C           6.3320   -3.1030    0.0000 C.3     1  UNL1       -0.0531
     49 C           5.4641   -3.5997    0.0000 C.3     1  UNL1       -0.0531
     50 C           4.6000   -3.0963    0.0000 C.3     1  UNL1       -0.0531
     51 C           3.7320   -3.5930    0.0000 C.3     1  UNL1       -0.0533
     52 C           2.8680   -3.0897    0.0000 C.3     1  UNL1       -0.0559
     53 C           2.0000   -3.5863    0.0000 C.3     1  UNL1       -0.0653
     54 H          26.5111   -2.2240    0.0000 H       1  UNL1        0.0309
     55 H          26.1188   -2.4133    0.0000 H       1  UNL1        0.0309
     56 H          25.2504   -1.2974    0.0000 H       1  UNL1        0.0312
     57 H          28.0042   -0.2065    0.0000 H       1  UNL1        0.0309
     58 H          25.9780    0.3675    0.0000 H       1  UNL1        0.0271
     59 H          25.1809    0.3675    0.0000 H       1  UNL1        0.0271
     60 H          27.1407   -2.4791    0.0000 H       1  UNL1        0.0268
     61 H          27.9291   -2.2214    0.0000 H       1  UNL1        0.0268
     62 H          24.5014   -0.0248    0.0000 H       1  UNL1        0.0268
     63 H          24.1029   -0.7151    0.0000 H       1  UNL1        0.0268
     64 H          28.4362   -1.5222    0.0000 H       1  UNL1        0.0268
     65 H          28.4362   -0.6927    0.0000 H       1  UNL1        0.0268
     66 H          25.8136   -3.7293    0.0000 H       1  UNL1        0.0310
     67 H          26.2047   -3.0334    0.0000 H       1  UNL1        0.0310
     68 H          27.0957    0.5200    0.0000 H       1  UNL1        0.0301
     69 H          27.0655    0.3926    0.0000 H       1  UNL1        0.0235
     70 H          26.4455    1.0126    0.0000 H       1  UNL1        0.0235
     71 H          25.8255    0.3926    0.0000 H       1  UNL1        0.0235
     72 H          23.2848   -1.0835    0.0000 H       1  UNL1        0.0275
     73 H          22.4867   -1.0682    0.0000 H       1  UNL1        0.0275
     74 H          24.6999   -4.2967    0.0000 H       1  UNL1        0.0572
     75 H          24.4311   -1.1191    0.0000 H       1  UNL1        0.0238
     76 H          23.8159   -0.4943    0.0000 H       1  UNL1        0.0238
     77 H          23.1912   -1.1095    0.0000 H       1  UNL1        0.0238
     78 H          22.4627   -4.1816    0.0000 H       1  UNL1        0.0346
     79 H          23.2610   -4.1785    0.0000 H       1  UNL1        0.0346
     80 H          21.7242   -1.4929    0.0000 H       1  UNL1        0.0301
     81 H          21.3171   -2.1795    0.0000 H       1  UNL1        0.0301
     82 H          28.7015    0.2344    0.0000 H       1  UNL1        0.0268
     83 H          29.2947    0.7667    0.0000 H       1  UNL1        0.0268
     84 H          21.9192   -3.7831    0.0000 H       1  UNL1        0.0737
     85 H          27.4960    1.8062    0.0000 H       1  UNL1        0.0233
     86 H          26.6205    1.8536    0.0000 H       1  UNL1        0.0233
     87 H          26.5731    0.9781    0.0000 H       1  UNL1        0.0233
     88 H          28.9710    2.4242    0.0000 H       1  UNL1        0.0268
     89 H          28.3777    1.8919    0.0000 H       1  UNL1        0.0268
     90 H          30.5767    2.1386    0.0000 H       1  UNL1        0.0303
     91 H          29.6740    2.8334    0.0000 H       1  UNL1        0.0298
     92 H          30.1115    0.9388    0.0000 H       1  UNL1        0.0265
     93 H          30.8692    0.6912    0.0000 H       1  UNL1        0.0265
     94 H          31.3871    2.5608    0.0000 H       1  UNL1        0.0232
     95 H          31.8659    3.2954    0.0000 H       1  UNL1        0.0232
     96 H          31.1314    3.7742    0.0000 H       1  UNL1        0.0232
     97 H          30.0743    4.1197    0.0000 H       1  UNL1        0.0232
     98 H          29.1988    4.1671    0.0000 H       1  UNL1        0.0232
     99 H          29.1514    3.2915    0.0000 H       1  UNL1        0.0232
    100 H          31.7443    0.8660    0.0000 H       1  UNL1        0.0230
    101 H          32.2231    1.6006    0.0000 H       1  UNL1        0.0230
    102 H          31.4886    2.0794    0.0000 H       1  UNL1        0.0230
    103 H          18.9200   -4.1265    0.0000 H       1  UNL1        0.0377
    104 H          19.7171   -4.1296    0.0000 H       1  UNL1        0.0377
    105 H          18.8566   -2.6763    0.0000 H       1  UNL1        0.0270
    106 H          18.0596   -2.6733    0.0000 H       1  UNL1        0.0270
    107 H          17.1880   -4.1198    0.0000 H       1  UNL1        0.0265
    108 H          17.9850   -4.1229    0.0000 H       1  UNL1        0.0265
    109 H          17.1246   -2.6697    0.0000 H       1  UNL1        0.0265
    110 H          16.3276   -2.6666    0.0000 H       1  UNL1        0.0265
    111 H          15.4559   -4.1131    0.0000 H       1  UNL1        0.0265
    112 H          16.2530   -4.1162    0.0000 H       1  UNL1        0.0265
    113 H          15.3926   -2.6630    0.0000 H       1  UNL1        0.0265
    114 H          14.5955   -2.6599    0.0000 H       1  UNL1        0.0265
    115 H          13.7239   -4.1065    0.0000 H       1  UNL1        0.0265
    116 H          14.5210   -4.1095    0.0000 H       1  UNL1        0.0265
    117 H          13.6605   -2.6563    0.0000 H       1  UNL1        0.0265
    118 H          12.8635   -2.6532    0.0000 H       1  UNL1        0.0265
    119 H          11.9919   -4.0998    0.0000 H       1  UNL1        0.0265
    120 H          12.7889   -4.1029    0.0000 H       1  UNL1        0.0265
    121 H          11.9285   -2.6496    0.0000 H       1  UNL1        0.0265
    122 H          11.1314   -2.6466    0.0000 H       1  UNL1        0.0265
    123 H          10.2598   -4.0931    0.0000 H       1  UNL1        0.0265
    124 H          11.0569   -4.0962    0.0000 H       1  UNL1        0.0265
    125 H          10.1965   -2.6430    0.0000 H       1  UNL1        0.0265
    126 H           9.3994   -2.6399    0.0000 H       1  UNL1        0.0265
    127 H           8.5278   -4.0864    0.0000 H       1  UNL1        0.0265
    128 H           9.3248   -4.0895    0.0000 H       1  UNL1        0.0265
    129 H           8.4644   -2.6363    0.0000 H       1  UNL1        0.0265
    130 H           7.6674   -2.6332    0.0000 H       1  UNL1        0.0265
    131 H           6.7958   -4.0798    0.0000 H       1  UNL1        0.0265
    132 H           7.5928   -4.0828    0.0000 H       1  UNL1        0.0265
    133 H           6.7324   -2.6296    0.0000 H       1  UNL1        0.0265
    134 H           5.9353   -2.6265    0.0000 H       1  UNL1        0.0265
    135 H           5.0637   -4.0731    0.0000 H       1  UNL1        0.0265
    136 H           5.8608   -4.0762    0.0000 H       1  UNL1        0.0265
    137 H           5.0003   -2.6229    0.0000 H       1  UNL1        0.0265
    138 H           4.2033   -2.6199    0.0000 H       1  UNL1        0.0265
    139 H           3.3317   -4.0664    0.0000 H       1  UNL1        0.0265
    140 H           4.1287   -4.0695    0.0000 H       1  UNL1        0.0265
    141 H           3.2683   -2.6163    0.0000 H       1  UNL1        0.0263
    142 H           2.4712   -2.6132    0.0000 H       1  UNL1        0.0263
    143 H           1.6921   -3.0482    0.0000 H       1  UNL1        0.0230
    144 H           1.4619   -3.8942    0.0000 H       1  UNL1        0.0230
    145 H           2.3079   -4.1245    0.0000 H       1  UNL1        0.0230
@<TRIPOS>BOND
     1     1    23    1
     2     1    29    1
     3     2    29    2
     4     3     4    1
     5     3     7    1
     6     3     8    1
     7     3    15    1
     8     4     5    1
     9     4    10    1
    10     4    54    1
    11     5     6    1
    12     5    13    1
    13     5    55    1
    14     6     9    1
    15     6    11    1
    16     6    56    1
    17     7    12    1
    18     7    14    1
    19     7    57    1
    20     8    11    1
    21     8    58    1
    22     8    59    1
    23     9    16    1
    24     9    17    1
    25     9    19    1
    26    10    12    1
    27    10    60    1
    28    10    61    1
    29    11    62    1
    30    11    63    1
    31    12    64    1
    32    12    65    1
    33    13    18    1
    34    13    66    1
    35    13    67    1
    36    14    22    1
    37    14    24    1
    38    14    68    1
    39    15    69    1
    40    15    70    1
    41    15    71    1
    42    16    18    2
    43    16    20    1
    44    17    21    1
    45    17    72    1
    46    17    73    1
    47    18    74    1
    48    19    75    1
    49    19    76    1
    50    19    77    1
    51    20    23    1
    52    20    78    1
    53    20    79    1
    54    21    23    1
    55    21    80    1
    56    21    81    1
    57    22    25    1
    58    22    82    1
    59    22    83    1
    60    23    84    1
    61    24    85    1
    62    24    86    1
    63    24    87    1
    64    25    26    1
    65    25    88    1
    66    25    89    1
    67    26    27    1
    68    26    28    1
    69    26    90    1
    70    27    30    1
    71    27    31    1
    72    27    91    1
    73    28    32    1
    74    28    92    1
    75    28    93    1
    76    29    33    1
    77    30    94    1
    78    30    95    1
    79    30    96    1
    80    31    97    1
    81    31    98    1
    82    31    99    1
    83    32   100    1
    84    32   101    1
    85    32   102    1
    86    33    34    1
    87    33   103    1
    88    33   104    1
    89    34    35    1
    90    34   105    1
    91    34   106    1
    92    35    36    1
    93    35   107    1
    94    35   108    1
    95    36    37    1
    96    36   109    1
    97    36   110    1
    98    37    38    1
    99    37   111    1
   100    37   112    1
   101    38    39    1
   102    38   113    1
   103    38   114    1
   104    39    40    1
   105    39   115    1
   106    39   116    1
   107    40    41    1
   108    40   117    1
   109    40   118    1
   110    41    42    1
   111    41   119    1
   112    41   120    1
   113    42    43    1
   114    42   121    1
   115    42   122    1
   116    43    44    1
   117    43   123    1
   118    43   124    1
   119    44    45    1
   120    44   125    1
   121    44   126    1
   122    45    46    1
   123    45   127    1
   124    45   128    1
   125    46    47    1
   126    46   129    1
   127    46   130    1
   128    47    48    1
   129    47   131    1
   130    47   132    1
   131    48    49    1
   132    48   133    1
   133    48   134    1
   134    49    50    1
   135    49   135    1
   136    49   136    1
   137    50    51    1
   138    50   137    1
   139    50   138    1
   140    51    52    1
   141    51   139    1
   142    51   140    1
   143    52    53    1
   144    52   141    1
   145    52   142    1
   146    53   143    1
   147    53   144    1
   148    53   145    1
