@<TRIPOS>MOLECULE
IMPHY000099
 27 28 0 0 0
SMALL
GASTEIGER

@<TRIPOS>ATOM
      1 O           2.0159   -1.8619    0.0000 O.3     1  UNL1       -0.3907
      2 C           5.4490    0.5418    0.0000 C.3     1  UNL1       -0.0252
      3 C           4.3089    1.4990    0.0000 C.3     1  UNL1       -0.0313
      4 C           4.0501    0.5330    0.0000 C.3     1  UNL1       -0.0121
      5 C           3.5723    2.4816    0.0000 C.3     1  UNL1       -0.0423
      6 C           2.2756    1.1878    0.0000 C.3     1  UNL1       -0.0311
      7 C           2.8290   -0.3326    0.0000 C.2     1  UNL1       -0.0448
      8 C           5.9490   -0.3242    0.0000 C.3     1  UNL1       -0.0590
      9 C           6.3150    1.0418    0.0000 C.3     1  UNL1       -0.0590
     10 C           2.0000    0.2266    0.0000 C.2     1  UNL1       -0.0821
     11 C           2.8639   -1.3320    0.0000 C.3     1  UNL1        0.0656
     12 H           4.9262    2.0832    0.0000 H       1  UNL1        0.0309
     13 H           4.3106   -0.2761    0.0000 H       1  UNL1        0.0352
     14 H           3.8901    3.0139    0.0000 H       1  UNL1        0.0274
     15 H           2.9591    2.5735    0.0000 H       1  UNL1        0.0274
     16 H           2.2706    1.8078    0.0000 H       1  UNL1        0.0310
     17 H           1.6613    1.2716    0.0000 H       1  UNL1        0.0310
     18 H           5.4121   -0.6342    0.0000 H       1  UNL1        0.0235
     19 H           6.2590   -0.8611    0.0000 H       1  UNL1        0.0235
     20 H           6.4859   -0.0142    0.0000 H       1  UNL1        0.0235
     21 H           6.6250    0.5049    0.0000 H       1  UNL1        0.0235
     22 H           6.8520    1.3518    0.0000 H       1  UNL1        0.0235
     23 H           6.0050    1.5788    0.0000 H       1  UNL1        0.0235
     24 H           1.4174    0.0145    0.0000 H       1  UNL1        0.0573
     25 H           3.0962   -1.9069    0.0000 H       1  UNL1        0.0604
     26 H           3.4704   -1.2031    0.0000 H       1  UNL1        0.0604
     27 H           2.0375   -2.4816    0.0000 H       1  UNL1        0.2098
@<TRIPOS>BOND
     1     1    11    1
     2     1    27    1
     3     2     3    1
     4     2     4    1
     5     2     8    1
     6     2     9    1
     7     3     5    1
     8     3     6    1
     9     3    12    1
    10     4     5    1
    11     4     7    1
    12     4    13    1
    13     5    14    1
    14     5    15    1
    15     6    10    1
    16     6    16    1
    17     6    17    1
    18     7    10    2
    19     7    11    1
    20     8    18    1
    21     8    19    1
    22     8    20    1
    23     9    21    1
    24     9    22    1
    25     9    23    1
    26    10    24    1
    27    11    25    1
    28    11    26    1
