@<TRIPOS>MOLECULE
IMPHY005464
 55 58 0 0 0
SMALL
GASTEIGER

@<TRIPOS>ATOM
      1 O          10.4366    1.2002    0.0000 O.3     1  UNL1       -0.4814
      2 O           6.9006    1.2280    0.0000 O.2     1  UNL1       -0.4534
      3 O           8.6605   -1.8067    0.0000 O.3     1  UNL1       -0.5058
      4 O           6.9121   -1.8413    0.0000 O.2     1  UNL1       -0.2866
      5 O           6.0022    2.7141    0.0000 O.3     1  UNL1       -0.5059
      6 O           2.5381    2.7275    0.0000 O.3     1  UNL1       -0.5066
      7 C          10.4446    2.2418    0.0000 C.3     1  UNL1        0.1235
      8 C           8.6605    1.1933    0.0000 C.ar    1  UNL1        0.0597
      9 C           7.7945    0.6933    0.0000 C.ar    1  UNL1        0.1534
     10 C           9.5266    0.6933    0.0000 C.ar    1  UNL1        0.1359
     11 C           7.7945   -0.3067    0.0000 C.ar    1  UNL1        0.1063
     12 C           9.5425    2.7626    0.0000 C.2     1  UNL1       -0.0408
     13 C           8.6445    2.2348    0.0000 C.2     1  UNL1       -0.0478
     14 C           5.9945   -0.3275    0.0000 C.ar    1  UNL1        0.0467
     15 C          10.9479    3.1059    0.0000 C.3     1  UNL1       -0.0215
     16 C          11.4446    2.2379    0.0000 C.3     1  UNL1       -0.0215
     17 C           6.9006   -0.8413    0.0000 C.ar    1  UNL1        0.2001
     18 C           5.9945    0.7142    0.0000 C.ar    1  UNL1        0.1462
     19 C           8.6605   -0.8067    0.0000 C.ar    1  UNL1        0.1347
     20 C           9.5266   -0.3067    0.0000 C.ar    1  UNL1        0.0231
     21 C           5.1304   -0.8308    0.0000 C.3     1  UNL1       -0.0021
     22 C           5.1304    1.2175    0.0000 C.ar    1  UNL1        0.0593
     23 C           5.1343   -1.8308    0.0000 C.2     1  UNL1       -0.0807
     24 C           5.1343    2.2175    0.0000 C.ar    1  UNL1        0.1310
     25 C           4.2625    0.7208    0.0000 C.ar    1  UNL1       -0.0441
     26 C           4.2702   -2.3341    0.0000 C.2     1  UNL1       -0.0793
     27 C           4.2702    2.7208    0.0000 C.ar    1  UNL1        0.0220
     28 C           3.3984    1.2242    0.0000 C.ar    1  UNL1       -0.0193
     29 C           3.4022    2.2242    0.0000 C.ar    1  UNL1        0.1204
     30 C           4.2740   -3.3341    0.0000 C.3     1  UNL1       -0.0440
     31 C           3.4022   -1.8375    0.0000 C.3     1  UNL1       -0.0440
     32 H           9.5401    3.3826    0.0000 H       1  UNL1        0.0611
     33 H           8.1040    2.5386    0.0000 H       1  UNL1        0.0624
     34 H          11.4422    1.6179    0.0000 H       1  UNL1        0.0271
     35 H          12.0646    2.2355    0.0000 H       1  UNL1        0.0271
     36 H          11.4470    2.8579    0.0000 H       1  UNL1        0.0271
     37 H          11.4837    2.7938    0.0000 H       1  UNL1        0.0271
     38 H          11.2600    3.6416    0.0000 H       1  UNL1        0.0271
     39 H          10.4122    3.4179    0.0000 H       1  UNL1        0.0271
     40 H          10.0635   -0.6167    0.0000 H       1  UNL1        0.0691
     41 H           4.9161   -0.2490    0.0000 H       1  UNL1        0.0358
     42 H           4.5202   -0.9408    0.0000 H       1  UNL1        0.0358
     43 H           5.6724   -2.1387    0.0000 H       1  UNL1        0.0575
     44 H           4.2601    0.1008    0.0000 H       1  UNL1        0.0627
     45 H           9.1975   -2.1167    0.0000 H       1  UNL1        0.2922
     46 H           4.2726    3.3408    0.0000 H       1  UNL1        0.0691
     47 H           2.8602    0.9162    0.0000 H       1  UNL1        0.0654
     48 H           3.6540   -3.3365    0.0000 H       1  UNL1        0.0274
     49 H           4.2764   -3.9541    0.0000 H       1  UNL1        0.0274
     50 H           4.8940   -3.3317    0.0000 H       1  UNL1        0.0274
     51 H           3.7102   -1.2994    0.0000 H       1  UNL1        0.0274
     52 H           2.8641   -1.5296    0.0000 H       1  UNL1        0.0274
     53 H           3.0943   -2.3756    0.0000 H       1  UNL1        0.0274
     54 H           6.0046    3.3341    0.0000 H       1  UNL1        0.2922
     55 H           2.0000    2.4196    0.0000 H       1  UNL1        0.2921
@<TRIPOS>BOND
     1     1     7    1
     2     1    10    1
     3     2     9   ar
     4     2    18   ar
     5     3    19    1
     6     3    45    1
     7     4    17    2
     8     5    24    1
     9     5    54    1
    10     6    29    1
    11     6    55    1
    12     7    12    1
    13     7    15    1
    14     7    16    1
    15     8     9   ar
    16     8    10   ar
    17     8    13    1
    18     9    11   ar
    19    10    20   ar
    20    11    17   ar
    21    11    19   ar
    22    12    13    2
    23    12    32    1
    24    13    33    1
    25    14    17   ar
    26    14    18   ar
    27    14    21    1
    28    15    37    1
    29    15    38    1
    30    15    39    1
    31    16    34    1
    32    16    35    1
    33    16    36    1
    34    18    22    1
    35    19    20   ar
    36    20    40    1
    37    21    23    1
    38    21    41    1
    39    21    42    1
    40    22    24   ar
    41    22    25   ar
    42    23    26    2
    43    23    43    1
    44    24    27   ar
    45    25    28   ar
    46    25    44    1
    47    26    30    1
    48    26    31    1
    49    27    29   ar
    50    27    46    1
    51    28    29   ar
    52    28    47    1
    53    30    48    1
    54    30    49    1
    55    30    50    1
    56    31    51    1
    57    31    52    1
    58    31    53    1
