@<TRIPOS>MOLECULE
IMPHY001144
 30 31 0 0 0
SMALL
GASTEIGER

@<TRIPOS>ATOM
      1 O           6.4103    0.8047    0.0000 O.3     1  UNL1       -0.4488
      2 O           6.4103   -0.8047    0.0000 O.3     1  UNL1       -0.4525
      3 O           2.8660    1.0000    0.0000 O.3     1  UNL1       -0.4910
      4 O           4.5981    2.0000    0.0000 O.3     1  UNL1       -0.4884
      5 C           3.7320   -0.5000    0.0000 C.ar    1  UNL1        0.0053
      6 C           5.4641    0.5000    0.0000 C.ar    1  UNL1        0.2112
      7 C           5.4641   -0.5000    0.0000 C.ar    1  UNL1        0.1704
      8 C           3.7320    0.5000    0.0000 C.ar    1  UNL1        0.1689
      9 C           4.5981    1.0000    0.0000 C.ar    1  UNL1        0.2077
     10 C           4.5981   -1.0000    0.0000 C.ar    1  UNL1       -0.0090
     11 C           2.8660   -1.0000    0.0000 C.3     1  UNL1       -0.0060
     12 C           6.9939    0.0000    0.0000 C.3     1  UNL1        0.2334
     13 C           2.8660   -2.0000    0.0000 C.2     1  UNL1       -0.0867
     14 C           2.0000    0.5000    0.0000 C.3     1  UNL1        0.0790
     15 C           3.7320    2.5000    0.0000 C.3     1  UNL1        0.0791
     16 C           2.0000   -2.5000    0.0000 C.2     1  UNL1       -0.1023
     17 H           4.5981   -1.6200    0.0000 H       1  UNL1        0.0659
     18 H           2.6540   -0.4174    0.0000 H       1  UNL1        0.0357
     19 H           2.2554   -1.1077    0.0000 H       1  UNL1        0.0357
     20 H           7.4548   -0.4147    0.0000 H       1  UNL1        0.1166
     21 H           7.4548    0.4147    0.0000 H       1  UNL1        0.1166
     22 H           3.4030   -2.3100    0.0000 H       1  UNL1        0.0570
     23 H           1.6900    1.0369    0.0000 H       1  UNL1        0.0660
     24 H           1.4631    0.1900    0.0000 H       1  UNL1        0.0660
     25 H           2.3100   -0.0369    0.0000 H       1  UNL1        0.0660
     26 H           4.0420    3.0369    0.0000 H       1  UNL1        0.0660
     27 H           3.1951    2.8100    0.0000 H       1  UNL1        0.0660
     28 H           3.4220    1.9631    0.0000 H       1  UNL1        0.0660
     29 H           1.4631   -2.1900    0.0000 H       1  UNL1        0.0532
     30 H           2.0000   -3.1200    0.0000 H       1  UNL1        0.0532
@<TRIPOS>BOND
     1     1     6    1
     2     1    12    1
     3     2     7    1
     4     2    12    1
     5     3     8    1
     6     3    14    1
     7     4     9    1
     8     4    15    1
     9     5     8   ar
    10     5    10   ar
    11     5    11    1
    12     6     7   ar
    13     6     9   ar
    14     7    10   ar
    15     8     9   ar
    16    10    17    1
    17    11    13    1
    18    11    18    1
    19    11    19    1
    20    12    20    1
    21    12    21    1
    22    13    16    2
    23    13    22    1
    24    14    23    1
    25    14    24    1
    26    14    25    1
    27    15    26    1
    28    15    27    1
    29    15    28    1
    30    16    29    1
    31    16    30    1
