@<TRIPOS>MOLECULE
IMPHY006038
 41 43 0 0 0
SMALL
GASTEIGER

@<TRIPOS>ATOM
      1 O          12.1434   -0.2553    0.0000 O.3     1  UNL1       -0.4526
      2 O          12.1434   -1.8647    0.0000 O.3     1  UNL1       -0.4526
      3 O           6.0010    1.4400    0.0000 O.3     1  UNL1       -0.5064
      4 O           2.5369    1.4400    0.0000 O.3     1  UNL1       -0.5066
      5 C           8.5991   -0.0600    0.0000 C.3     1  UNL1       -0.0026
      6 C           9.4651   -0.5600    0.0000 C.ar    1  UNL1       -0.0394
      7 C           7.7331   -0.5600    0.0000 C.2     1  UNL1       -0.0472
      8 C           6.0010   -0.5600    0.0000 C.3     1  UNL1        0.0007
      9 C           6.8671   -0.0600    0.0000 C.2     1  UNL1       -0.0471
     10 C          10.3312   -0.0600    0.0000 C.ar    1  UNL1       -0.0126
     11 C          11.1972   -0.5600    0.0000 C.ar    1  UNL1        0.1665
     12 C           5.1350   -0.0600    0.0000 C.ar    1  UNL1       -0.0014
     13 C          11.1972   -1.5600    0.0000 C.ar    1  UNL1        0.1662
     14 C           9.4651   -1.5600    0.0000 C.ar    1  UNL1       -0.0546
     15 C          10.3312   -2.0600    0.0000 C.ar    1  UNL1       -0.0159
     16 C           5.1350    0.9400    0.0000 C.ar    1  UNL1        0.1238
     17 C          12.7270   -1.0600    0.0000 C.3     1  UNL1        0.2332
     18 C           4.2690   -0.5600    0.0000 C.ar    1  UNL1       -0.0514
     19 C           7.7331   -1.5600    0.0000 C.2     1  UNL1       -0.0949
     20 C           6.8671    0.9400    0.0000 C.2     1  UNL1       -0.0949
     21 C           4.2690    1.4400    0.0000 C.ar    1  UNL1        0.0216
     22 C           3.4030   -0.0600    0.0000 C.ar    1  UNL1       -0.0197
     23 C           3.4030    0.9400    0.0000 C.ar    1  UNL1        0.1203
     24 H           8.9976    0.4149    0.0000 H       1  UNL1        0.0361
     25 H           8.2006    0.4149    0.0000 H       1  UNL1        0.0361
     26 H           5.6025   -1.0350    0.0000 H       1  UNL1        0.0362
     27 H           6.3996   -1.0350    0.0000 H       1  UNL1        0.0362
     28 H          10.3312    0.5600    0.0000 H       1  UNL1        0.0658
     29 H           8.9282   -1.8700    0.0000 H       1  UNL1        0.0622
     30 H          10.3312   -2.6800    0.0000 H       1  UNL1        0.0655
     31 H          13.1879   -1.4747    0.0000 H       1  UNL1        0.1166
     32 H          13.1879   -0.6453    0.0000 H       1  UNL1        0.1166
     33 H           4.2690   -1.1800    0.0000 H       1  UNL1        0.0623
     34 H           7.1962   -1.8700    0.0000 H       1  UNL1        0.0538
     35 H           8.2700   -1.8700    0.0000 H       1  UNL1        0.0538
     36 H           7.4040    1.2500    0.0000 H       1  UNL1        0.0538
     37 H           6.3301    1.2500    0.0000 H       1  UNL1        0.0538
     38 H           4.2690    2.0600    0.0000 H       1  UNL1        0.0691
     39 H           2.8660   -0.3700    0.0000 H       1  UNL1        0.0654
     40 H           6.0010    2.0600    0.0000 H       1  UNL1        0.2921
     41 H           2.0000    1.1300    0.0000 H       1  UNL1        0.2921
@<TRIPOS>BOND
     1     1    11    1
     2     1    17    1
     3     2    13    1
     4     2    17    1
     5     3    16    1
     6     3    40    1
     7     4    23    1
     8     4    41    1
     9     5     6    1
    10     5     7    1
    11     5    24    1
    12     5    25    1
    13     6    10   ar
    14     6    14   ar
    15     7     9    1
    16     7    19    2
    17     8     9    1
    18     8    12    1
    19     8    26    1
    20     8    27    1
    21     9    20    2
    22    10    11   ar
    23    10    28    1
    24    11    13   ar
    25    12    16   ar
    26    12    18   ar
    27    13    15   ar
    28    14    15   ar
    29    14    29    1
    30    15    30    1
    31    16    21   ar
    32    17    31    1
    33    17    32    1
    34    18    22   ar
    35    18    33    1
    36    19    34    1
    37    19    35    1
    38    20    36    1
    39    20    37    1
    40    21    23   ar
    41    21    38    1
    42    22    23   ar
    43    22    39    1
