@<TRIPOS>MOLECULE
IMPHY004714
 51 54 0 0 0
SMALL
GASTEIGER

@<TRIPOS>ATOM
      1 O           2.9180    1.4114    0.0000 O.3     1  UNL1       -0.4836
      2 O           2.0000   -1.1370    0.0000 O.3     1  UNL1       -0.4879
      3 O           5.5161   -0.0886    0.0000 O.2     1  UNL1       -0.2912
      4 O           5.6405   -3.2255    0.0000 O.3     1  UNL1       -0.4914
      5 O           3.8372   -4.2853    0.0000 O.3     1  UNL1       -0.4913
      6 O           4.6622    4.4807    0.0000 O.3     1  UNL1       -0.5061
      7 C           3.7841   -0.0886    0.0000 C.3     1  UNL1        0.0908
      8 C           2.9180    0.4114    0.0000 C.3     1  UNL1        0.1478
      9 C           3.8001   -1.1301    0.0000 C.ar    1  UNL1        0.0122
     10 C           2.0080   -0.0954    0.0000 C.3     1  UNL1        0.1273
     11 C           4.6501    0.4114    0.0000 C.2     1  UNL1        0.1778
     12 C           2.9021   -1.6578    0.0000 C.ar    1  UNL1        0.1283
     13 C           4.6501    1.4114    0.0000 C.ar    1  UNL1        0.0605
     14 C           3.7841    1.9114    0.0000 C.ar    1  UNL1        0.1351
     15 C           4.7520   -1.6507    0.0000 C.ar    1  UNL1       -0.0088
     16 C           2.8937   -2.7428    0.0000 C.ar    1  UNL1        0.0257
     17 C           5.5601    1.9183    0.0000 C.ar    1  UNL1       -0.0371
     18 C           4.7688   -2.7356    0.0000 C.ar    1  UNL1        0.1620
     19 C           3.7680    2.9529    0.0000 C.ar    1  UNL1        0.0228
     20 C           3.8334   -3.2853    0.0000 C.ar    1  UNL1        0.1650
     21 C           5.5681    2.9599    0.0000 C.ar    1  UNL1        0.0170
     22 C           4.6660    3.4807    0.0000 C.ar    1  UNL1        0.1275
     23 C           6.4361    3.4565    0.0000 C.2     1  UNL1       -0.0547
     24 C           7.3002    2.9532    0.0000 C.2     1  UNL1       -0.0796
     25 C           5.6521   -4.2255    0.0000 C.3     1  UNL1        0.0790
     26 C           2.9731   -4.7886    0.0000 C.3     1  UNL1        0.0790
     27 C           8.1681    3.4499    0.0000 C.3     1  UNL1       -0.0165
     28 C           9.0322    2.9465    0.0000 C.2     1  UNL1       -0.0874
     29 C           9.9001    3.4432    0.0000 C.2     1  UNL1       -0.1023
     30 H           4.3234   -0.3944    0.0000 H       1  UNL1        0.0468
     31 H           2.3835    0.7256    0.0000 H       1  UNL1        0.0778
     32 H           1.8035    0.4899    0.0000 H       1  UNL1        0.0734
     33 H           1.3964   -0.1968    0.0000 H       1  UNL1        0.0734
     34 H           5.2829   -1.3304    0.0000 H       1  UNL1        0.0659
     35 H           2.3556   -3.0507    0.0000 H       1  UNL1        0.0692
     36 H           6.0934    1.6021    0.0000 H       1  UNL1        0.0633
     37 H           3.2275    3.2567    0.0000 H       1  UNL1        0.0691
     38 H           6.4384    4.0765    0.0000 H       1  UNL1        0.0622
     39 H           4.1241    4.7886    0.0000 H       1  UNL1        0.2922
     40 H           7.2978    2.3332    0.0000 H       1  UNL1        0.0575
     41 H           5.0321   -4.2326    0.0000 H       1  UNL1        0.0660
     42 H           5.6592   -4.8454    0.0000 H       1  UNL1        0.0660
     43 H           6.2720   -4.2183    0.0000 H       1  UNL1        0.0660
     44 H           2.6610   -4.2529    0.0000 H       1  UNL1        0.0660
     45 H           2.4374   -5.1007    0.0000 H       1  UNL1        0.0660
     46 H           3.2852   -5.3244    0.0000 H       1  UNL1        0.0660
     47 H           8.5684    3.9233    0.0000 H       1  UNL1        0.0350
     48 H           7.7714    3.9263    0.0000 H       1  UNL1        0.0350
     49 H           9.0298    2.3265    0.0000 H       1  UNL1        0.0569
     50 H          10.4359    3.1311    0.0000 H       1  UNL1        0.0532
     51 H           9.9025    4.0632    0.0000 H       1  UNL1        0.0532
@<TRIPOS>BOND
     1     1     8    1
     2     1    14    1
     3     2    10    1
     4     2    12    1
     5     3    11    2
     6     4    18    1
     7     4    25    1
     8     5    20    1
     9     5    26    1
    10     6    22    1
    11     6    39    1
    12     7     8    1
    13     7     9    1
    14     7    11    1
    15     7    30    1
    16     8    10    1
    17     8    31    1
    18     9    12   ar
    19     9    15   ar
    20    10    32    1
    21    10    33    1
    22    11    13    1
    23    12    16   ar
    24    13    14   ar
    25    13    17   ar
    26    14    19   ar
    27    15    18   ar
    28    15    34    1
    29    16    20   ar
    30    16    35    1
    31    17    21   ar
    32    17    36    1
    33    18    20   ar
    34    19    22   ar
    35    19    37    1
    36    21    22   ar
    37    21    23    1
    38    23    24    2
    39    23    38    1
    40    24    27    1
    41    24    40    1
    42    25    41    1
    43    25    42    1
    44    25    43    1
    45    26    44    1
    46    26    45    1
    47    26    46    1
    48    27    28    1
    49    27    47    1
    50    27    48    1
    51    28    29    2
    52    28    49    1
    53    29    50    1
    54    29    51    1
