@<TRIPOS>MOLECULE
IMPHY014344
 76 80 0 0 0
SMALL
GASTEIGER

@<TRIPOS>ATOM
      1 O           5.6591    1.9042    0.0000 O.3     1  UNL1       -0.3912
      2 O           3.8674   -3.1442    0.0000 O.3     1  UNL1       -0.3847
      3 O           4.7810   -3.6650    0.0000 O.3     1  UNL1       -0.3889
      4 O           9.0712    2.8162    0.0000 O.3     1  UNL1       -0.4574
      5 O           2.9755    0.4613    0.0000 O.2     1  UNL1       -0.2920
      6 O           7.4248    3.3543    0.0000 O.3     1  UNL1       -0.3946
      7 O          10.3604    3.9730    0.0000 O.2     1  UNL1       -0.2452
      8 O          12.0067    3.4349    0.0000 O.3     1  UNL1       -0.3902
      9 C           6.5251    0.4042    0.0000 C.3     1  UNL1        0.0002
     10 C           6.5251   -0.5958    0.0000 C.3     1  UNL1       -0.0298
     11 C           5.6591   -1.0958    0.0000 C.3     1  UNL1       -0.0313
     12 C           4.7931   -0.5958    0.0000 C.3     1  UNL1       -0.0203
     13 C           7.4714    0.7090    0.0000 C.3     1  UNL1       -0.0247
     14 C           3.8831   -1.1026    0.0000 C.3     1  UNL1        0.0646
     15 C           5.6591    0.9042    0.0000 C.3     1  UNL1        0.0614
     16 C           4.7931    0.4042    0.0000 C.3     1  UNL1       -0.0222
     17 C           7.4714   -0.9005    0.0000 C.3     1  UNL1       -0.0491
     18 C           8.0550   -0.0958    0.0000 C.3     1  UNL1       -0.0489
     19 C           5.6752   -2.1373    0.0000 C.3     1  UNL1       -0.0207
     20 C           3.8751   -2.1442    0.0000 C.3     1  UNL1        0.1077
     21 C           4.7771   -2.6650    0.0000 C.3     1  UNL1        0.0854
     22 C           7.7820    1.6595    0.0000 C.3     1  UNL1        0.0230
     23 C           6.5251    1.4042    0.0000 C.3     1  UNL1       -0.0567
     24 C           3.8908   -0.1026    0.0000 C.3     1  UNL1       -0.0495
     25 C           2.9396   -2.6940    0.0000 C.3     1  UNL1       -0.0020
     26 C           2.9562   -0.5385    0.0000 C.2     1  UNL1        0.1647
     27 C           8.7605    1.8657    0.0000 C.3     1  UNL1        0.1122
     28 C           7.1142    2.4038    0.0000 C.3     1  UNL1        0.0507
     29 C           2.0000   -2.1514    0.0000 C.2     1  UNL1       -0.0779
     30 C           2.0084   -1.0665    0.0000 C.2     1  UNL1       -0.0224
     31 C           9.4284    1.1214    0.0000 C.3     1  UNL1        0.0065
     32 C          10.4069    1.3276    0.0000 C.2     1  UNL1       -0.0570
     33 C          10.0497    3.0224    0.0000 C.2     1  UNL1        0.3376
     34 C          10.7175    2.2781    0.0000 C.2     1  UNL1        0.0608
     35 C          11.0747    0.5833    0.0000 C.3     1  UNL1       -0.0428
     36 C          11.6960    2.4844    0.0000 C.3     1  UNL1        0.0759
     37 H           6.6151   -1.4410    0.0000 H       1  UNL1        0.0310
     38 H           6.3985   -1.5151    0.0000 H       1  UNL1        0.0307
     39 H           5.5292   -0.1708    0.0000 H       1  UNL1        0.0315
     40 H           8.3111    0.8408    0.0000 H       1  UNL1        0.0311
     41 H           5.1222    1.2142    0.0000 H       1  UNL1        0.0599
     42 H           4.5810    0.9868    0.0000 H       1  UNL1        0.0293
     43 H           4.1825    0.2966    0.0000 H       1  UNL1        0.0293
     44 H           7.2203   -1.4674    0.0000 H       1  UNL1        0.0268
     45 H           8.0087   -1.2097    0.0000 H       1  UNL1        0.0268
     46 H           8.5158   -0.5105    0.0000 H       1  UNL1        0.0268
     47 H           8.5158    0.3190    0.0000 H       1  UNL1        0.0268
     48 H           5.8932   -2.7177    0.0000 H       1  UNL1        0.0294
     49 H           6.2843   -2.0218    0.0000 H       1  UNL1        0.0294
     50 H           5.3158   -2.9719    0.0000 H       1  UNL1        0.0622
     51 H           7.9746    2.2488    0.0000 H       1  UNL1        0.0362
     52 H           7.1451    1.4042    0.0000 H       1  UNL1        0.0236
     53 H           6.5251    2.0242    0.0000 H       1  UNL1        0.0236
     54 H           5.9051    1.4042    0.0000 H       1  UNL1        0.0236
     55 H           4.5108   -0.1074    0.0000 H       1  UNL1        0.0240
     56 H           3.8956    0.5173    0.0000 H       1  UNL1        0.0240
     57 H           3.2708   -0.0979    0.0000 H       1  UNL1        0.0240
     58 H           2.5423   -3.1699    0.0000 H       1  UNL1        0.0336
     59 H           3.3406   -3.1668    0.0000 H       1  UNL1        0.0336
     60 H           9.5923    2.0410    0.0000 H       1  UNL1        0.0741
     61 H           5.1222    2.2142    0.0000 H       1  UNL1        0.2098
     62 H           6.5672    2.6958    0.0000 H       1  UNL1        0.0561
     63 H           6.7316    1.9159    0.0000 H       1  UNL1        0.0561
     64 H           3.3280   -3.4500    0.0000 H       1  UNL1        0.2103
     65 H           1.4619   -2.4594    0.0000 H       1  UNL1        0.0574
     66 H           1.4750   -0.7503    0.0000 H       1  UNL1        0.0649
     67 H           5.3191   -3.9730    0.0000 H       1  UNL1        0.2099
     68 H           8.9020    0.7938    0.0000 H       1  UNL1        0.0346
     69 H           9.6596    0.5461    0.0000 H       1  UNL1        0.0346
     70 H           7.0108    3.8158    0.0000 H       1  UNL1        0.2094
     71 H          10.6133    0.1692    0.0000 H       1  UNL1        0.0275
     72 H          11.4888    0.1218    0.0000 H       1  UNL1        0.0275
     73 H          11.5362    0.9974    0.0000 H       1  UNL1        0.0275
     74 H          11.7166    1.8647    0.0000 H       1  UNL1        0.0609
     75 H          12.3099    2.3970    0.0000 H       1  UNL1        0.0609
     76 H          12.6134    3.5627    0.0000 H       1  UNL1        0.2099
@<TRIPOS>BOND
     1    15     1    1
     2     1    61    1
     3    20     2    1
     4     2    64    1
     5    21     3    1
     6     3    67    1
     7     4    27    1
     8     4    33    1
     9     5    26    2
    10     6    28    1
    11     6    70    1
    12     7    33    2
    13     8    36    1
    14     8    76    1
    15     9    10    1
    16     9    13    1
    17     9    15    1
    18     9    23    1
    19    10    11    1
    20    10    17    1
    21    10    37    1
    22    11    12    1
    23    11    19    1
    24    11    38    1
    25    12    14    1
    26    12    16    1
    27    12    39    1
    28    13    18    1
    29    13    22    1
    30    13    40    1
    31    14    20    1
    32    14    24    1
    33    14    26    1
    34    15    16    1
    35    15    41    1
    36    16    42    1
    37    16    43    1
    38    17    18    1
    39    17    44    1
    40    17    45    1
    41    18    46    1
    42    18    47    1
    43    19    21    1
    44    19    48    1
    45    19    49    1
    46    20    21    1
    47    20    25    1
    48    21    50    1
    49    22    27    1
    50    22    28    1
    51    22    51    1
    52    23    52    1
    53    23    53    1
    54    23    54    1
    55    24    55    1
    56    24    56    1
    57    24    57    1
    58    25    29    1
    59    25    58    1
    60    25    59    1
    61    26    30    1
    62    27    31    1
    63    27    60    1
    64    28    62    1
    65    28    63    1
    66    29    30    2
    67    29    65    1
    68    30    66    1
    69    31    32    1
    70    31    68    1
    71    31    69    1
    72    32    34    2
    73    32    35    1
    74    33    34    1
    75    34    36    1
    76    35    71    1
    77    35    72    1
    78    35    73    1
    79    36    74    1
    80    36    75    1
