@<TRIPOS>MOLECULE
IMPHY001183
 79 82 0 0 0
SMALL
GASTEIGER

@<TRIPOS>ATOM
      1 O          10.2942    0.4045    0.0000 O.3     1  UNL1       -0.4432
      2 O           8.0622   -2.4615    0.0000 O.3     1  UNL1       -0.4554
      3 O          11.5263   -2.4615    0.0000 O.3     1  UNL1       -0.4554
      4 O           9.7942   -3.4615    0.0000 O.3     1  UNL1       -0.3844
      5 O           8.2942    0.4045    0.0000 O.3     1  UNL1       -0.4778
      6 O           9.7942    1.2705    0.0000 O.2     1  UNL1       -0.2465
      7 O          11.7942   -0.4615    0.0000 O.2     1  UNL1       -0.2456
      8 O           7.1962   -0.9615    0.0000 O.2     1  UNL1       -0.2456
      9 O          12.3923   -0.9615    0.0000 O.2     1  UNL1       -0.2456
     10 O          15.7942    3.0026    0.0000 O.3     1  UNL1       -0.5033
     11 O           2.0000   -1.9615    0.0000 O.3     1  UNL1       -0.5033
     12 O          15.8564   -4.9615    0.0000 O.3     1  UNL1       -0.5033
     13 O          14.7942    4.7346    0.0000 O.3     1  UNL1       -0.5033
     14 O           2.0000   -3.9615    0.0000 O.3     1  UNL1       -0.5033
     15 O          17.5885   -3.9615    0.0000 O.3     1  UNL1       -0.5033
     16 C           9.7942   -0.4615    0.0000 C.3     1  UNL1        0.2159
     17 C           8.9282   -0.9615    0.0000 C.3     1  UNL1        0.0378
     18 C          10.6603   -0.9615    0.0000 C.3     1  UNL1        0.0378
     19 C           8.9282   -1.9615    0.0000 C.3     1  UNL1        0.1367
     20 C          10.6603   -1.9615    0.0000 C.3     1  UNL1        0.1367
     21 C           9.7942   -2.4615    0.0000 C.3     1  UNL1        0.1290
     22 C           9.2942    0.4045    0.0000 C.2     1  UNL1        0.3494
     23 C          11.2942    0.4045    0.0000 C.2     1  UNL1        0.3330
     24 C           7.1962   -1.9615    0.0000 C.2     1  UNL1        0.3323
     25 C          12.3923   -1.9615    0.0000 C.2     1  UNL1        0.3323
     26 C          11.7942    1.2705    0.0000 C.2     1  UNL1        0.0231
     27 C           6.3301   -2.4615    0.0000 C.2     1  UNL1        0.0231
     28 C          13.2583   -2.4615    0.0000 C.2     1  UNL1        0.0231
     29 C          12.7942    1.2705    0.0000 C.2     1  UNL1       -0.0477
     30 C           5.4641   -1.9615    0.0000 C.2     1  UNL1       -0.0477
     31 C          14.1244   -1.9615    0.0000 C.2     1  UNL1       -0.0477
     32 C          13.2942    2.1365    0.0000 C.ar    1  UNL1       -0.0211
     33 C           4.5981   -2.4615    0.0000 C.ar    1  UNL1       -0.0211
     34 C          14.9904   -2.4615    0.0000 C.ar    1  UNL1       -0.0211
     35 C          14.2942    2.1365    0.0000 C.ar    1  UNL1       -0.0094
     36 C          12.7942    3.0026    0.0000 C.ar    1  UNL1       -0.0509
     37 C           3.7320   -1.9615    0.0000 C.ar    1  UNL1       -0.0094
     38 C          14.9904   -3.4615    0.0000 C.ar    1  UNL1       -0.0094
     39 C           4.5981   -3.4615    0.0000 C.ar    1  UNL1       -0.0509
     40 C          15.8564   -1.9615    0.0000 C.ar    1  UNL1       -0.0509
     41 C          14.7942    3.0026    0.0000 C.ar    1  UNL1        0.1588
     42 C          13.2942    3.8686    0.0000 C.ar    1  UNL1       -0.0160
     43 C           2.8660   -2.4615    0.0000 C.ar    1  UNL1        0.1588
     44 C          15.8564   -3.9615    0.0000 C.ar    1  UNL1        0.1588
     45 C           3.7320   -3.9615    0.0000 C.ar    1  UNL1       -0.0160
     46 C          16.7224   -2.4615    0.0000 C.ar    1  UNL1       -0.0160
     47 C          14.2942    3.8686    0.0000 C.ar    1  UNL1        0.1582
     48 C           2.8660   -3.4615    0.0000 C.ar    1  UNL1        0.1582
     49 C          16.7224   -3.4615    0.0000 C.ar    1  UNL1        0.1582
     50 H           8.7162   -0.3789    0.0000 H       1  UNL1        0.0346
     51 H           8.3176   -1.0692    0.0000 H       1  UNL1        0.0346
     52 H          11.2708   -1.0692    0.0000 H       1  UNL1        0.0346
     53 H          10.8723   -0.3789    0.0000 H       1  UNL1        0.0346
     54 H           8.9282   -2.5815    0.0000 H       1  UNL1        0.0763
     55 H          11.1972   -1.6515    0.0000 H       1  UNL1        0.0763
     56 H          10.3312   -2.7715    0.0000 H       1  UNL1        0.0668
     57 H           9.2573   -3.7715    0.0000 H       1  UNL1        0.2101
     58 H           7.9842    0.9414    0.0000 H       1  UNL1        0.2952
     59 H          11.4842    1.8074    0.0000 H       1  UNL1        0.0689
     60 H           6.3301   -3.0815    0.0000 H       1  UNL1        0.0689
     61 H          13.2583   -3.0815    0.0000 H       1  UNL1        0.0689
     62 H          13.1042    0.7336    0.0000 H       1  UNL1        0.0626
     63 H           5.4641   -1.3415    0.0000 H       1  UNL1        0.0626
     64 H          14.1244   -1.3415    0.0000 H       1  UNL1        0.0626
     65 H          14.6042    1.5996    0.0000 H       1  UNL1        0.0661
     66 H          12.1742    3.0026    0.0000 H       1  UNL1        0.0625
     67 H           3.7320   -1.3415    0.0000 H       1  UNL1        0.0661
     68 H          14.4534   -3.7715    0.0000 H       1  UNL1        0.0661
     69 H           5.1350   -3.7715    0.0000 H       1  UNL1        0.0625
     70 H          15.8564   -1.3415    0.0000 H       1  UNL1        0.0625
     71 H          12.9842    4.4055    0.0000 H       1  UNL1        0.0655
     72 H           3.7320   -4.5815    0.0000 H       1  UNL1        0.0655
     73 H          17.2594   -2.1515    0.0000 H       1  UNL1        0.0655
     74 H          16.1042    3.5395    0.0000 H       1  UNL1        0.2923
     75 H           2.0000   -1.3415    0.0000 H       1  UNL1        0.2923
     76 H          16.3933   -5.2715    0.0000 H       1  UNL1        0.2923
     77 H          14.4842    5.2715    0.0000 H       1  UNL1        0.2923
     78 H           2.0000   -4.5815    0.0000 H       1  UNL1        0.2923
     79 H          18.1254   -3.6515    0.0000 H       1  UNL1        0.2923
@<TRIPOS>BOND
     1     1    16    1
     2     1    23    1
     3    19     2    1
     4     2    24    1
     5    20     3    1
     6     3    25    1
     7     4    21    1
     8     4    57    1
     9     5    22    1
    10     5    58    1
    11     6    22    2
    12     7    23    2
    13     8    24    2
    14     9    25    2
    15    10    41    1
    16    10    74    1
    17    11    43    1
    18    11    75    1
    19    12    44    1
    20    12    76    1
    21    13    47    1
    22    13    77    1
    23    14    48    1
    24    14    78    1
    25    15    49    1
    26    15    79    1
    27    16    17    1
    28    16    18    1
    29    16    22    1
    30    17    19    1
    31    17    50    1
    32    17    51    1
    33    18    20    1
    34    18    52    1
    35    18    53    1
    36    19    21    1
    37    19    54    1
    38    20    21    1
    39    20    55    1
    40    21    56    1
    41    23    26    1
    42    24    27    1
    43    25    28    1
    44    26    29    2
    45    26    59    1
    46    27    30    2
    47    27    60    1
    48    28    31    2
    49    28    61    1
    50    29    32    1
    51    29    62    1
    52    30    33    1
    53    30    63    1
    54    31    34    1
    55    31    64    1
    56    32    35   ar
    57    32    36   ar
    58    33    37   ar
    59    33    39   ar
    60    34    38   ar
    61    34    40   ar
    62    35    41   ar
    63    35    65    1
    64    36    42   ar
    65    36    66    1
    66    37    43   ar
    67    37    67    1
    68    38    44   ar
    69    38    68    1
    70    39    45   ar
    71    39    69    1
    72    40    46   ar
    73    40    70    1
    74    41    47   ar
    75    42    47   ar
    76    42    71    1
    77    43    48   ar
    78    44    49   ar
    79    45    48   ar
    80    45    72    1
    81    46    49   ar
    82    46    73    1
