@<TRIPOS>MOLECULE
IMPHY014345
 111 118 0 0 0
SMALL
GASTEIGER

@<TRIPOS>ATOM
      1 O           8.4361   -2.4256    0.0000 O.3     1  UNL1       -0.4572
      2 O           8.1884    1.8583    0.0000 O.3     1  UNL1       -0.3455
      3 O           6.9064    2.9435    0.0000 O.3     1  UNL1       -0.3394
      4 O           6.4864   -1.4768    0.0000 O.3     1  UNL1       -0.4574
      5 O          13.8810   -2.6888    0.0000 O.3     1  UNL1       -0.3449
      6 O           5.6521    3.8928    0.0000 O.3     1  UNL1       -0.3838
      7 O          14.7347   -1.1818    0.0000 O.3     1  UNL1       -0.3461
      8 O           6.7303   -2.7264    0.0000 O.2     1  UNL1       -0.2512
      9 O           5.6706    0.0511    0.0000 O.2     1  UNL1       -0.2512
     10 O          15.6212   -3.6746    0.0000 O.3     1  UNL1       -0.3841
     11 O          17.3450   -2.6604    0.0000 O.3     1  UNL1       -0.3864
     12 O          17.3286   -0.6605    0.0000 O.3     1  UNL1       -0.3869
     13 C          10.5737   -0.8523    0.0000 C.3     1  UNL1       -0.0193
     14 C          11.3677   -1.2900    0.0000 C.3     1  UNL1       -0.0193
     15 C           9.8217   -1.2908    0.0000 C.3     1  UNL1       -0.0254
     16 C          11.3501   -0.3831    0.0000 C.3     1  UNL1       -0.0401
     17 C           8.9536   -0.7263    0.0000 C.3     1  UNL1        0.0200
     18 C          11.3787   -2.1967    0.0000 C.3     1  UNL1       -0.0273
     19 C           8.4892    0.1526    0.0000 C.3     1  UNL1        0.0123
     20 C          10.4453    0.1443    0.0000 C.3     1  UNL1       -0.0460
     21 C          12.1724   -0.7955    0.0000 C.3     1  UNL1       -0.0442
     22 C           9.8116   -2.1975    0.0000 C.3     1  UNL1       -0.0488
     23 C           9.3971    0.6504    0.0000 C.3     1  UNL1       -0.0437
     24 C          10.5954   -2.6535    0.0000 C.3     1  UNL1       -0.0488
     25 C           7.5044   -0.0211    0.0000 C.3     1  UNL1        0.0369
     26 C          12.1950   -2.6717    0.0000 C.3     1  UNL1       -0.0052
     27 C           8.2624   -1.4408    0.0000 C.3     1  UNL1        0.1462
     28 C           7.3686   -1.0058    0.0000 C.3     1  UNL1        0.1462
     29 C          12.9996   -1.2515    0.0000 C.3     1  UNL1       -0.0255
     30 C          13.0109   -2.1959    0.0000 C.3     1  UNL1        0.0672
     31 C           9.0901   -1.7170    0.0000 C.3     1  UNL1       -0.0552
     32 C           8.8312    1.0923    0.0000 C.3     1  UNL1        0.0577
     33 C           6.4286    0.9950    0.0000 C.3     1  UNL1        0.0772
     34 C          12.6954   -3.5375    0.0000 C.3     1  UNL1       -0.0572
     35 C          11.6954   -3.5380    0.0000 C.3     1  UNL1       -0.0572
     36 C           5.0296    0.4862    0.0000 C.3     1  UNL1       -0.0185
     37 C           6.1697    1.9609    0.0000 C.3     1  UNL1        0.1990
     38 C           4.7708    1.4521    0.0000 C.3     1  UNL1        0.0069
     39 C           7.3945    0.7361    0.0000 C.3     1  UNL1       -0.0353
     40 C           5.9109    2.9268    0.0000 C.3     1  UNL1        0.1140
     41 C           7.6700   -3.0684    0.0000 C.2     1  UNL1        0.3043
     42 C          14.7429   -2.1818    0.0000 C.3     1  UNL1        0.1878
     43 C           5.6375   -0.9484    0.0000 C.2     1  UNL1        0.3043
     44 C           4.9450    2.6680    0.0000 C.3     1  UNL1       -0.0313
     45 C           6.4845    3.7460    0.0000 C.3     1  UNL1       -0.0313
     46 C          15.6130   -2.6746    0.0000 C.3     1  UNL1        0.1341
     47 C           7.8437   -4.0532    0.0000 C.3     1  UNL1        0.0332
     48 C           4.7553   -1.4194    0.0000 C.3     1  UNL1        0.0332
     49 C          16.4749   -2.1676    0.0000 C.3     1  UNL1        0.1137
     50 C          15.5966   -0.6747    0.0000 C.3     1  UNL1        0.0792
     51 C          16.4667   -1.1676    0.0000 C.3     1  UNL1        0.1069
     52 H           9.0723   -1.6920    0.0000 H       1  UNL1        0.0313
     53 H          11.1265    0.1952    0.0000 H       1  UNL1        0.0276
     54 H          11.9584   -0.2634    0.0000 H       1  UNL1        0.0276
     55 H          11.3791   -3.0467    0.0000 H       1  UNL1        0.0312
     56 H          10.6029    0.7439    0.0000 H       1  UNL1        0.0271
     57 H          11.0640    0.1044    0.0000 H       1  UNL1        0.0271
     58 H          11.7622   -0.3306    0.0000 H       1  UNL1        0.0272
     59 H          12.5603   -0.3118    0.0000 H       1  UNL1        0.0272
     60 H           9.5961   -2.7788    0.0000 H       1  UNL1        0.0268
     61 H           9.2020   -2.0846    0.0000 H       1  UNL1        0.0268
     62 H           8.9939    1.1214    0.0000 H       1  UNL1        0.0272
     63 H           9.7754    1.1416    0.0000 H       1  UNL1        0.0272
     64 H          10.9947   -3.1277    0.0000 H       1  UNL1        0.0268
     65 H          10.1965   -3.1281    0.0000 H       1  UNL1        0.0268
     66 H           6.6673   -0.1687    0.0000 H       1  UNL1        0.0372
     67 H           7.7674   -1.8142    0.0000 H       1  UNL1        0.0777
     68 H           6.8599   -0.6513    0.0000 H       1  UNL1        0.0775
     69 H          13.2016   -0.6653    0.0000 H       1  UNL1        0.0290
     70 H          13.6116   -1.3502    0.0000 H       1  UNL1        0.0290
     71 H          13.5447   -1.8805    0.0000 H       1  UNL1        0.0602
     72 H           9.7043   -1.6323    0.0000 H       1  UNL1        0.0237
     73 H           9.1748   -2.3312    0.0000 H       1  UNL1        0.0237
     74 H           8.4759   -1.8016    0.0000 H       1  UNL1        0.0237
     75 H           9.2297    1.5672    0.0000 H       1  UNL1        0.0567
     76 H           9.3681    0.7823    0.0000 H       1  UNL1        0.0567
     77 H          13.2322   -3.2273    0.0000 H       1  UNL1        0.0236
     78 H          13.0057   -4.0743    0.0000 H       1  UNL1        0.0236
     79 H          12.1587   -3.8478    0.0000 H       1  UNL1        0.0236
     80 H          12.2325   -3.8477    0.0000 H       1  UNL1        0.0236
     81 H          11.3857   -4.0751    0.0000 H       1  UNL1        0.0236
     82 H          11.1584   -3.2283    0.0000 H       1  UNL1        0.0236
     83 H           5.2246   -0.1024    0.0000 H       1  UNL1        0.0295
     84 H           4.4356    0.3084    0.0000 H       1  UNL1        0.0295
     85 H           4.1768    1.2743    0.0000 H       1  UNL1        0.0319
     86 H           4.5759    2.0406    0.0000 H       1  UNL1        0.0319
     87 H           7.5550    1.3350    0.0000 H       1  UNL1        0.0257
     88 H           7.9933    0.5756    0.0000 H       1  UNL1        0.0257
     89 H           7.2340    0.1372    0.0000 H       1  UNL1        0.0257
     90 H          14.7480   -2.8017    0.0000 H       1  UNL1        0.0937
     91 H           5.1055    2.0691    0.0000 H       1  UNL1        0.0259
     92 H           4.3461    2.5076    0.0000 H       1  UNL1        0.0259
     93 H           4.7845    3.2669    0.0000 H       1  UNL1        0.0259
     94 H           5.9766    4.1016    0.0000 H       1  UNL1        0.0259
     95 H           6.8401    4.2539    0.0000 H       1  UNL1        0.0259
     96 H           6.9924    3.3904    0.0000 H       1  UNL1        0.0259
     97 H          16.1525   -2.9802    0.0000 H       1  UNL1        0.0671
     98 H           5.0532    4.0532    0.0000 H       1  UNL1        0.2104
     99 H           8.4542   -3.9456    0.0000 H       1  UNL1        0.0342
    100 H           7.9513   -4.6638    0.0000 H       1  UNL1        0.0342
    101 H           7.2331   -4.1609    0.0000 H       1  UNL1        0.0342
    102 H           5.0474   -1.9663    0.0000 H       1  UNL1        0.0342
    103 H           4.2084   -1.7114    0.0000 H       1  UNL1        0.0342
    104 H           4.4633   -0.8724    0.0000 H       1  UNL1        0.0342
    105 H          17.0093   -1.8532    0.0000 H       1  UNL1        0.0647
    106 H          15.1942   -0.2030    0.0000 H       1  UNL1        0.0587
    107 H          15.9913   -0.1965    0.0000 H       1  UNL1        0.0587
    108 H          16.4617   -0.5476    0.0000 H       1  UNL1        0.0643
    109 H          16.1607   -3.9802    0.0000 H       1  UNL1        0.2101
    110 H          17.8794   -2.3461    0.0000 H       1  UNL1        0.2100
    111 H          17.3236   -0.0405    0.0000 H       1  UNL1        0.2100
@<TRIPOS>BOND
     1    27     1    1
     2     1    41    1
     3     2    32    1
     4     2    37    1
     5     3    33    1
     6     3    37    1
     7    28     4    1
     8     4    43    1
     9    30     5    1
    10    42     5    1
    11     6    40    1
    12     6    98    1
    13     7    42    1
    14     7    50    1
    15     8    41    2
    16     9    43    2
    17    46    10    1
    18    10   109    1
    19    49    11    1
    20    11   110    1
    21    51    12    1
    22    12   111    1
    23    13    14    1
    24    13    15    1
    25    13    16    1
    26    13    20    1
    27    14    16    1
    28    14    18    1
    29    14    21    1
    30    15    17    1
    31    15    22    1
    32    15    52    1
    33    16    53    1
    34    16    54    1
    35    17    19    1
    36    17    27    1
    37    17    31    1
    38    18    24    1
    39    18    26    1
    40    18    55    1
    41    19    23    1
    42    19    25    1
    43    19    32    1
    44    20    23    1
    45    20    56    1
    46    20    57    1
    47    21    29    1
    48    21    58    1
    49    21    59    1
    50    22    24    1
    51    22    60    1
    52    22    61    1
    53    23    62    1
    54    23    63    1
    55    24    64    1
    56    24    65    1
    57    25    28    1
    58    25    33    1
    59    25    66    1
    60    26    30    1
    61    26    34    1
    62    26    35    1
    63    27    28    1
    64    27    67    1
    65    28    68    1
    66    29    30    1
    67    29    69    1
    68    29    70    1
    69    30    71    1
    70    31    72    1
    71    31    73    1
    72    31    74    1
    73    32    75    1
    74    32    76    1
    75    33    36    1
    76    33    39    1
    77    34    77    1
    78    34    78    1
    79    34    79    1
    80    35    80    1
    81    35    81    1
    82    35    82    1
    83    36    38    1
    84    36    83    1
    85    36    84    1
    86    37    38    1
    87    37    40    1
    88    38    85    1
    89    38    86    1
    90    39    87    1
    91    39    88    1
    92    39    89    1
    93    40    44    1
    94    40    45    1
    95    41    47    1
    96    42    46    1
    97    42    90    1
    98    43    48    1
    99    44    91    1
   100    44    92    1
   101    44    93    1
   102    45    94    1
   103    45    95    1
   104    45    96    1
   105    46    49    1
   106    46    97    1
   107    47    99    1
   108    47   100    1
   109    47   101    1
   110    48   102    1
   111    48   103    1
   112    48   104    1
   113    49    51    1
   114    49   105    1
   115    50    51    1
   116    50   106    1
   117    50   107    1
   118    51   108    1
