@<TRIPOS>MOLECULE
IMPHY012633
 29 29 0 0 0
SMALL
GASTEIGER

@<TRIPOS>ATOM
      1 O           4.2690   -2.5950    0.0000 O.3     1  UNL1       -0.5061
      2 O           2.5369    0.4050    0.0000 O.3     1  UNL1       -0.5056
      3 O           5.1350    1.9050    0.0000 O.3     1  UNL1       -0.4644
      4 O           3.4030    1.9050    0.0000 O.2     1  UNL1       -0.2448
      5 C           5.1350   -0.0950    0.0000 C.ar    1  UNL1       -0.0266
      6 C           5.1350   -1.0950    0.0000 C.ar    1  UNL1       -0.0049
      7 C           4.2690    0.4050    0.0000 C.ar    1  UNL1        0.1039
      8 C           3.4030   -1.0950    0.0000 C.ar    1  UNL1        0.0334
      9 C           4.2690   -1.5950    0.0000 C.ar    1  UNL1        0.1264
     10 C           3.4030   -0.0950    0.0000 C.ar    1  UNL1        0.1374
     11 C           6.0010    0.4050    0.0000 C.3     1  UNL1       -0.0384
     12 C           6.0010   -1.5950    0.0000 C.3     1  UNL1       -0.0360
     13 C           2.5369   -1.5950    0.0000 C.3     1  UNL1       -0.0327
     14 C           4.2690    1.4050    0.0000 C.2     1  UNL1        0.3428
     15 C           5.1350    2.9050    0.0000 C.3     1  UNL1        0.0820
     16 H           6.3110   -0.1319    0.0000 H       1  UNL1        0.0278
     17 H           6.5380    0.7150    0.0000 H       1  UNL1        0.0278
     18 H           5.6910    0.9419    0.0000 H       1  UNL1        0.0278
     19 H           5.6910   -2.1319    0.0000 H       1  UNL1        0.0279
     20 H           6.5380   -1.9050    0.0000 H       1  UNL1        0.0279
     21 H           6.3110   -1.0581    0.0000 H       1  UNL1        0.0279
     22 H           2.2269   -1.0581    0.0000 H       1  UNL1        0.0280
     23 H           2.0000   -1.9050    0.0000 H       1  UNL1        0.0280
     24 H           2.8469   -2.1319    0.0000 H       1  UNL1        0.0280
     25 H           4.8059   -2.9050    0.0000 H       1  UNL1        0.2922
     26 H           2.0000    0.0950    0.0000 H       1  UNL1        0.2922
     27 H           5.7550    2.9050    0.0000 H       1  UNL1        0.0661
     28 H           5.1350    3.5250    0.0000 H       1  UNL1        0.0661
     29 H           4.5150    2.9050    0.0000 H       1  UNL1        0.0661
@<TRIPOS>BOND
     1     1     9    1
     2     1    25    1
     3     2    10    1
     4     2    26    1
     5     3    14    1
     6     3    15    1
     7     4    14    2
     8     5     6   ar
     9     5     7   ar
    10     5    11    1
    11     6     9   ar
    12     6    12    1
    13     7    10   ar
    14     7    14    1
    15     8     9   ar
    16     8    10   ar
    17     8    13    1
    18    11    16    1
    19    11    17    1
    20    11    18    1
    21    12    19    1
    22    12    20    1
    23    12    21    1
    24    13    22    1
    25    13    23    1
    26    13    24    1
    27    15    27    1
    28    15    28    1
    29    15    29    1
