@<TRIPOS>MOLECULE
IMPHY009748
 40 42 0 0 0
SMALL
GASTEIGER

@<TRIPOS>ATOM
      1 O           4.0035    2.0354    0.0000 O.3     1  UNL1       -0.3906
      2 C           3.2666   -0.4314    0.0000 C.3     1  UNL1       -0.0183
      3 C           3.6086   -1.3711    0.0000 C.3     1  UNL1       -0.0172
      4 C           5.2401    0.1868    0.0000 C.3     1  UNL1        0.0007
      5 C           4.9813   -0.7791    0.0000 C.3     1  UNL1        0.0123
      6 C           4.5035    1.1694    0.0000 C.3     1  UNL1        0.0681
      7 C           2.2732   -0.4687    0.0000 C.3     1  UNL1       -0.0465
      8 C           2.8237   -1.9811    0.0000 C.3     1  UNL1       -0.0465
      9 C           6.6718   -0.0109    0.0000 C.3     1  UNL1       -0.0410
     10 C           2.0000   -1.4245    0.0000 C.3     1  UNL1       -0.0520
     11 C           2.9245    0.5082    0.0000 C.3     1  UNL1       -0.0585
     12 C           6.2530   -1.5738    0.0000 C.2     1  UNL1       -0.0705
     13 C           3.9506   -2.3108    0.0000 C.3     1  UNL1       -0.0584
     14 C           5.4989    1.1527    0.0000 C.3     1  UNL1       -0.0567
     15 C           7.0301   -0.9444    0.0000 C.3     1  UNL1       -0.0310
     16 C           6.3053   -2.5724    0.0000 C.2     1  UNL1       -0.0991
     17 H           4.7613   -1.6002    0.0000 H       1  UNL1        0.0376
     18 H           5.0209    1.5110    0.0000 H       1  UNL1        0.0605
     19 H           2.3152    0.1499    0.0000 H       1  UNL1        0.0271
     20 H           1.6624   -0.3619    0.0000 H       1  UNL1        0.0271
     21 H           2.4244   -2.4555    0.0000 H       1  UNL1        0.0271
     22 H           3.2534   -2.4280    0.0000 H       1  UNL1        0.0271
     23 H           7.2796    0.1115    0.0000 H       1  UNL1        0.0275
     24 H           6.6527    0.6089    0.0000 H       1  UNL1        0.0275
     25 H           1.4251   -1.1924    0.0000 H       1  UNL1        0.0266
     26 H           1.7088   -1.9719    0.0000 H       1  UNL1        0.0266
     27 H           3.5072    0.7203    0.0000 H       1  UNL1        0.0235
     28 H           2.7125    1.0909    0.0000 H       1  UNL1        0.0235
     29 H           2.3419    0.2962    0.0000 H       1  UNL1        0.0235
     30 H           3.3680   -2.5229    0.0000 H       1  UNL1        0.0235
     31 H           4.1626   -2.8934    0.0000 H       1  UNL1        0.0235
     32 H           4.5332   -2.0988    0.0000 H       1  UNL1        0.0235
     33 H           6.0978    0.9923    0.0000 H       1  UNL1        0.0236
     34 H           5.6594    1.7516    0.0000 H       1  UNL1        0.0236
     35 H           4.9000    1.3132    0.0000 H       1  UNL1        0.0236
     36 H           7.3678   -1.4644    0.0000 H       1  UNL1        0.0310
     37 H           7.5825   -0.6630    0.0000 H       1  UNL1        0.0310
     38 H           4.3135    2.5724    0.0000 H       1  UNL1        0.2098
     39 H           5.7853   -2.9101    0.0000 H       1  UNL1        0.0535
     40 H           6.8577   -2.8539    0.0000 H       1  UNL1        0.0535
@<TRIPOS>BOND
     1     6     1    1
     2     1    38    1
     3     2     3    1
     4     2     4    1
     5     2     7    1
     6     2    11    1
     7     3     5    1
     8     3     8    1
     9     3    13    1
    10     4     6    1
    11     4     9    1
    12     4    14    1
    13     5     6    1
    14     5    12    1
    15     5    17    1
    16     6    18    1
    17     7    10    1
    18     7    19    1
    19     7    20    1
    20     8    10    1
    21     8    21    1
    22     8    22    1
    23     9    15    1
    24     9    23    1
    25     9    24    1
    26    10    25    1
    27    10    26    1
    28    11    27    1
    29    11    28    1
    30    11    29    1
    31    12    15    1
    32    12    16    2
    33    13    30    1
    34    13    31    1
    35    13    32    1
    36    14    33    1
    37    14    34    1
    38    14    35    1
    39    15    36    1
    40    15    37    1
    41    16    39    1
    42    16    40    1
