@<TRIPOS>MOLECULE
IMPHY004220
 26 26 0 0 0
SMALL
GASTEIGER

@<TRIPOS>ATOM
      1 O           3.7601   -0.1807    0.0000 O.3     1  UNL1       -0.4570
      2 O           2.0000    0.0981    0.0000 O.2     1  UNL1       -0.2505
      3 C           3.2601    1.3582    0.0000 C.3     1  UNL1        0.0573
      4 C           4.2601    1.3582    0.0000 C.3     1  UNL1        0.0007
      5 C           4.5691    0.4071    0.0000 C.3     1  UNL1        0.1223
      6 C           2.9511    0.4071    0.0000 C.2     1  UNL1        0.3106
      7 C           2.6723    2.1672    0.0000 C.3     1  UNL1       -0.0522
      8 C           5.5202    0.0981    0.0000 C.2     1  UNL1       -0.0437
      9 C           5.7281   -0.8800    0.0000 C.2     1  UNL1       -0.0599
     10 C           6.6791   -1.1890    0.0000 C.2     1  UNL1       -0.0577
     11 C           6.8870   -2.1672    0.0000 C.3     1  UNL1       -0.0403
     12 C           7.4223   -0.5199    0.0000 C.2     1  UNL1       -0.0958
     13 H           3.5416    1.9106    0.0000 H       1  UNL1        0.0412
     14 H           4.8665    1.4871    0.0000 H       1  UNL1        0.0312
     15 H           4.1953    1.9748    0.0000 H       1  UNL1        0.0312
     16 H           4.6661   -0.2052    0.0000 H       1  UNL1        0.0779
     17 H           3.1739    2.5316    0.0000 H       1  UNL1        0.0238
     18 H           2.3079    2.6688    0.0000 H       1  UNL1        0.0238
     19 H           2.1707    1.8028    0.0000 H       1  UNL1        0.0238
     20 H           5.9809    0.5130    0.0000 H       1  UNL1        0.0608
     21 H           5.2673   -1.2949    0.0000 H       1  UNL1        0.0618
     22 H           6.2806   -2.2961    0.0000 H       1  UNL1        0.0277
     23 H           7.0159   -2.7736    0.0000 H       1  UNL1        0.0277
     24 H           7.4935   -2.0383    0.0000 H       1  UNL1        0.0277
     25 H           8.0119   -0.7115    0.0000 H       1  UNL1        0.0537
     26 H           7.2934    0.0865    0.0000 H       1  UNL1        0.0537
@<TRIPOS>BOND
     1     1     5    1
     2     1     6    1
     3     2     6    2
     4     3     4    1
     5     3     6    1
     6     3     7    1
     7     3    13    1
     8     4     5    1
     9     4    14    1
    10     4    15    1
    11     5     8    1
    12     5    16    1
    13     7    17    1
    14     7    18    1
    15     7    19    1
    16     8     9    2
    17     8    20    1
    18     9    10    1
    19     9    21    1
    20    10    11    1
    21    10    12    2
    22    11    22    1
    23    11    23    1
    24    11    24    1
    25    12    25    1
    26    12    26    1
