@<TRIPOS>MOLECULE
IMPHY000805
 82 88 0 0 0
SMALL
GASTEIGER

@<TRIPOS>ATOM
      1 O           7.4735    2.1823    0.0000 O.3     1  UNL1       -0.3369
      2 O           8.4813    1.4395    0.0000 O.3     1  UNL1       -0.3432
      3 O           8.1660   -0.6715    0.0000 O.3     1  UNL1       -0.3859
      4 O           2.6198   -4.6806    0.0000 O.3     1  UNL1       -0.3912
      5 C           4.9010   -1.0233    0.0000 C.3     1  UNL1       -0.0193
      6 C           4.3277   -1.9369    0.0000 C.3     1  UNL1       -0.0193
      7 C           5.9362   -1.0454    0.0000 C.3     1  UNL1       -0.0264
      8 C           3.8227   -0.9834    0.0000 C.3     1  UNL1       -0.0401
      9 C           6.4661   -0.1558    0.0000 C.3     1  UNL1        0.0081
     10 C           4.8396   -2.8863    0.0000 C.3     1  UNL1       -0.0273
     11 C           5.9943    0.7192    0.0000 C.3     1  UNL1       -0.0158
     12 C           4.4095   -0.1119    0.0000 C.3     1  UNL1       -0.0460
     13 C           3.2054   -1.8870    0.0000 C.3     1  UNL1       -0.0442
     14 C           6.4699   -1.9827    0.0000 C.3     1  UNL1       -0.0488
     15 C           4.9598    0.7652    0.0000 C.3     1  UNL1       -0.0461
     16 C           6.6794    1.4395    0.0000 C.3     1  UNL1        0.0244
     17 C           7.4444    0.0208    0.0000 C.3     1  UNL1        0.1153
     18 C           5.9180   -2.9093    0.0000 C.3     1  UNL1       -0.0488
     19 C           7.5804    1.0056    0.0000 C.3     1  UNL1        0.2009
     20 C           4.2647   -3.8515    0.0000 C.3     1  UNL1       -0.0056
     21 C           2.6082   -2.8386    0.0000 C.3     1  UNL1       -0.0258
     22 C           6.9407   -1.0360    0.0000 C.3     1  UNL1       -0.0562
     23 C           3.1415   -3.8275    0.0000 C.3     1  UNL1        0.0606
     24 C           6.4569    2.4144    0.0000 C.3     1  UNL1       -0.0329
     25 C           5.5197    1.5994    0.0000 C.3     1  UNL1       -0.0585
     26 C           8.0804    3.1962    0.0000 C.3     1  UNL1        0.0987
     27 C           7.0804    3.1962    0.0000 C.3     1  UNL1       -0.0182
     28 C           4.2472   -4.8513    0.0000 C.3     1  UNL1       -0.0572
     29 C           5.1218   -4.3665    0.0000 C.3     1  UNL1       -0.0572
     30 C           8.7038    2.4144    0.0000 C.3     1  UNL1        0.0804
     31 C           5.4819    2.6369    0.0000 C.3     1  UNL1       -0.0619
     32 C           8.3029    4.1711    0.0000 C.3     1  UNL1       -0.0152
     33 C           9.2584    4.4659    0.0000 C.3     1  UNL1       -0.0600
     34 C           7.5698    4.8513    0.0000 C.3     1  UNL1       -0.0600
     35 H           6.5562   -1.0515    0.0000 H       1  UNL1        0.0313
     36 H           3.7376   -0.3692    0.0000 H       1  UNL1        0.0276
     37 H           3.2327   -1.1739    0.0000 H       1  UNL1        0.0276
     38 H           5.1402   -3.4285    0.0000 H       1  UNL1        0.0312
     39 H           3.9485    0.3026    0.0000 H       1  UNL1        0.0271
     40 H           3.9222   -0.4952    0.0000 H       1  UNL1        0.0271
     41 H           3.3385   -1.2814    0.0000 H       1  UNL1        0.0272
     42 H           2.6315   -1.6522    0.0000 H       1  UNL1        0.0272
     43 H           6.9404   -2.3864    0.0000 H       1  UNL1        0.0268
     44 H           6.9482   -1.5882    0.0000 H       1  UNL1        0.0268
     45 H           5.0930    1.3707    0.0000 H       1  UNL1        0.0271
     46 H           4.3860    1.0000    0.0000 H       1  UNL1        0.0271
     47 H           6.0815    1.6036    0.0000 H       1  UNL1        0.0362
     48 H           7.2653   -0.5727    0.0000 H       1  UNL1        0.0653
     49 H           5.7988   -3.5177    0.0000 H       1  UNL1        0.0268
     50 H           6.4971   -3.1308    0.0000 H       1  UNL1        0.0268
     51 H           2.1472   -2.4241    0.0000 H       1  UNL1        0.0290
     52 H           2.1209   -3.2219    0.0000 H       1  UNL1        0.0290
     53 H           6.3950   -1.3303    0.0000 H       1  UNL1        0.0236
     54 H           7.2350   -1.5817    0.0000 H       1  UNL1        0.0236
     55 H           7.4864   -0.7417    0.0000 H       1  UNL1        0.0236
     56 H           3.4389   -4.3715    0.0000 H       1  UNL1        0.0599
     57 H           6.2521    2.9996    0.0000 H       1  UNL1        0.0304
     58 H           6.0654    1.8936    0.0000 H       1  UNL1        0.0235
     59 H           5.2254    2.1451    0.0000 H       1  UNL1        0.0235
     60 H           4.9739    1.3051    0.0000 H       1  UNL1        0.0235
     61 H           7.2183    3.8007    0.0000 H       1  UNL1        0.0296
     62 H           6.5218    3.4652    0.0000 H       1  UNL1        0.0296
     63 H           4.8025   -4.8980    0.0000 H       1  UNL1        0.0236
     64 H           5.6533   -4.6859    0.0000 H       1  UNL1        0.0236
     65 H           5.4412   -3.8351    0.0000 H       1  UNL1        0.0236
     66 H           3.6273   -4.8405    0.0000 H       1  UNL1        0.0236
     67 H           4.2364   -5.4712    0.0000 H       1  UNL1        0.0236
     68 H           4.8671   -4.8622    0.0000 H       1  UNL1        0.0236
     69 H           9.2624    2.1454    0.0000 H       1  UNL1        0.0590
     70 H           9.0904    2.8991    0.0000 H       1  UNL1        0.0590
     71 H           8.7614   -0.4986    0.0000 H       1  UNL1        0.2100
     72 H           5.6199    3.2414    0.0000 H       1  UNL1        0.0233
     73 H           4.8775    2.7749    0.0000 H       1  UNL1        0.0233
     74 H           5.3440    2.0324    0.0000 H       1  UNL1        0.0233
     75 H           7.7104    3.9884    0.0000 H       1  UNL1        0.0324
     76 H           2.0000   -4.6650    0.0000 H       1  UNL1        0.2098
     77 H           7.9915    5.3058    0.0000 H       1  UNL1        0.0233
     78 H           7.1153    5.2730    0.0000 H       1  UNL1        0.0233
     79 H           7.1481    4.3968    0.0000 H       1  UNL1        0.0233
     80 H           9.4412    3.8734    0.0000 H       1  UNL1        0.0233
     81 H           9.8509    4.6486    0.0000 H       1  UNL1        0.0233
     82 H           9.0757    5.0584    0.0000 H       1  UNL1        0.0233
@<TRIPOS>BOND
     1     1    19    1
     2     1    26    1
     3     2    19    1
     4     2    30    1
     5     3    17    1
     6     3    71    1
     7     4    23    1
     8     4    76    1
     9     5     6    1
    10     5     7    1
    11     5     8    1
    12     5    12    1
    13     6     8    1
    14     6    10    1
    15     6    13    1
    16     7     9    1
    17     7    14    1
    18     7    35    1
    19     8    36    1
    20     8    37    1
    21     9    11    1
    22     9    17    1
    23     9    22    1
    24    10    18    1
    25    10    20    1
    26    10    38    1
    27    11    15    1
    28    11    16    1
    29    11    25    1
    30    12    15    1
    31    12    39    1
    32    12    40    1
    33    13    21    1
    34    13    41    1
    35    13    42    1
    36    14    18    1
    37    14    43    1
    38    14    44    1
    39    15    45    1
    40    15    46    1
    41    16    19    1
    42    16    24    1
    43    16    47    1
    44    19    17    1
    45    17    48    1
    46    18    49    1
    47    18    50    1
    48    20    23    1
    49    20    28    1
    50    20    29    1
    51    21    23    1
    52    21    51    1
    53    21    52    1
    54    22    53    1
    55    22    54    1
    56    22    55    1
    57    23    56    1
    58    24    27    1
    59    24    31    1
    60    24    57    1
    61    25    58    1
    62    25    59    1
    63    25    60    1
    64    26    27    1
    65    26    30    1
    66    26    32    1
    67    27    61    1
    68    27    62    1
    69    28    66    1
    70    28    67    1
    71    28    68    1
    72    29    63    1
    73    29    64    1
    74    29    65    1
    75    30    69    1
    76    30    70    1
    77    31    72    1
    78    31    73    1
    79    31    74    1
    80    32    33    1
    81    32    34    1
    82    32    75    1
    83    33    80    1
    84    33    81    1
    85    33    82    1
    86    34    77    1
    87    34    78    1
    88    34    79    1
