@<TRIPOS>MOLECULE
IMPHY014747
 33 32 0 0 0
SMALL
GASTEIGER

@<TRIPOS>ATOM
      1 O           4.5981   -1.2500    0.0000 O.3     1  UNL1       -0.3741
      2 O           5.4641    1.2500    0.0000 O.3     1  UNL1       -0.3865
      3 O           3.7320    1.2500    0.0000 O.3     1  UNL1       -0.3699
      4 O           6.3301   -1.2500    0.0000 O.3     1  UNL1       -0.3869
      5 O           8.0622   -0.2500    0.0000 O.3     1  UNL1       -0.3803
      6 O           2.0000    0.2500    0.0000 O.2     1  UNL1       -0.2982
      7 C           5.4641    0.2500    0.0000 C.3     1  UNL1        0.1120
      8 C           4.5981   -0.2500    0.0000 C.3     1  UNL1        0.1192
      9 C           6.3301   -0.2500    0.0000 C.3     1  UNL1        0.1067
     10 C           3.7320    0.2500    0.0000 C.3     1  UNL1        0.1414
     11 C           7.1962    0.2500    0.0000 C.3     1  UNL1        0.0757
     12 C           2.8660   -0.2500    0.0000 C.2     1  UNL1        0.1515
     13 C           3.7320   -1.7500    0.0000 C.3     1  UNL1        0.0370
     14 C           2.8660    1.7500    0.0000 C.3     1  UNL1        0.0375
     15 C           8.9282    0.2500    0.0000 C.3     1  UNL1        0.0366
     16 H           6.0010    0.5600    0.0000 H       1  UNL1        0.0647
     17 H           5.1350   -0.5600    0.0000 H       1  UNL1        0.0653
     18 H           6.8671   -0.5600    0.0000 H       1  UNL1        0.0643
     19 H           4.2690    0.5600    0.0000 H       1  UNL1        0.0700
     20 H           7.5947    0.7249    0.0000 H       1  UNL1        0.0586
     21 H           6.7976    0.7249    0.0000 H       1  UNL1        0.0586
     22 H           6.0010    1.5600    0.0000 H       1  UNL1        0.2100
     23 H           2.8660   -0.8700    0.0000 H       1  UNL1        0.1055
     24 H           6.8671   -1.5600    0.0000 H       1  UNL1        0.2100
     25 H           3.4220   -1.2131    0.0000 H       1  UNL1        0.0524
     26 H           3.1951   -2.0600    0.0000 H       1  UNL1        0.0524
     27 H           4.0420   -2.2869    0.0000 H       1  UNL1        0.0524
     28 H           3.1760    2.2869    0.0000 H       1  UNL1        0.0524
     29 H           2.3291    2.0600    0.0000 H       1  UNL1        0.0524
     30 H           2.5560    1.2131    0.0000 H       1  UNL1        0.0524
     31 H           9.2382   -0.2869    0.0000 H       1  UNL1        0.0524
     32 H           9.4651    0.5600    0.0000 H       1  UNL1        0.0524
     33 H           8.6182    0.7869    0.0000 H       1  UNL1        0.0524
@<TRIPOS>BOND
     1     8     1    1
     2     1    13    1
     3     7     2    1
     4     2    22    1
     5    10     3    1
     6     3    14    1
     7     9     4    1
     8     4    24    1
     9     5    11    1
    10     5    15    1
    11     6    12    2
    12     7     8    1
    13     7     9    1
    14     7    16    1
    15     8    10    1
    16     8    17    1
    17     9    11    1
    18     9    18    1
    19    10    12    1
    20    10    19    1
    21    11    20    1
    22    11    21    1
    23    12    23    1
    24    13    25    1
    25    13    26    1
    26    13    27    1
    27    14    28    1
    28    14    29    1
    29    14    30    1
    30    15    31    1
    31    15    32    1
    32    15    33    1
