@<TRIPOS>MOLECULE
IMPHY004095
 81 86 0 0 0
SMALL
GASTEIGER

@<TRIPOS>ATOM
      1 O           9.8067    1.9635    0.0000 O.3     1  UNL1       -0.4601
      2 O           2.5357   -2.5732    0.0000 O.3     1  UNL1       -0.3912
      3 O          10.7803    0.4515    0.0000 O.2     1  UNL1       -0.2502
      4 C           8.3092   -0.3814    0.0000 C.3     1  UNL1       -0.0231
      5 C           7.3738   -0.9311    0.0000 C.3     1  UNL1       -0.0231
      6 C           8.3172    0.6602    0.0000 C.3     1  UNL1       -0.0279
      7 C           6.4342   -0.3886    0.0000 C.3     1  UNL1       -0.0294
      8 C           9.2273    1.1670    0.0000 C.3     1  UNL1        0.0157
      9 C           5.4468   -0.9385    0.0000 C.3     1  UNL1       -0.0252
     10 C          10.0933    0.6670    0.0000 C.3     1  UNL1        0.0742
     11 C           5.4381   -2.0687    0.0000 C.3     1  UNL1       -0.0278
     12 C           9.2113   -0.9022    0.0000 C.3     1  UNL1       -0.0458
     13 C           7.3904    1.2243    0.0000 C.3     1  UNL1       -0.0490
     14 C           6.4425    0.6963    0.0000 C.3     1  UNL1       -0.0489
     15 C           7.3912   -2.0612    0.0000 C.3     1  UNL1       -0.0466
     16 C           9.2273    2.1670    0.0000 C.3     1  UNL1        0.1122
     17 C          10.1093   -0.3745    0.0000 C.3     1  UNL1       -0.0363
     18 C           6.4169   -2.6338    0.0000 C.3     1  UNL1       -0.0486
     19 C           4.4232   -2.6651    0.0000 C.3     1  UNL1       -0.0056
     20 C          10.9593    1.1670    0.0000 C.3     1  UNL1       -0.0363
     21 C          10.0933    2.6670    0.0000 C.3     1  UNL1        0.0025
     22 C           8.6441   -1.3237    0.0000 C.3     1  UNL1       -0.0588
     23 C           4.4412   -0.3265    0.0000 C.3     1  UNL1       -0.0447
     24 C           8.0166   -1.6972    0.0000 C.3     1  UNL1       -0.0588
     25 C          10.9593    2.1670    0.0000 C.3     1  UNL1       -0.0435
     26 C          10.2067    1.2706    0.0000 C.2     1  UNL1        0.3140
     27 C           5.4545    0.0614    0.0000 C.3     1  UNL1       -0.0590
     28 C           3.4037   -2.0765    0.0000 C.3     1  UNL1        0.0606
     29 C           3.4128   -0.8993    0.0000 C.3     1  UNL1       -0.0258
     30 C           3.9265   -3.5331    0.0000 C.3     1  UNL1       -0.0572
     31 C           4.9265   -3.5292    0.0000 C.3     1  UNL1       -0.0572
     32 C          10.5933    3.5331    0.0000 C.3     1  UNL1       -0.0564
     33 C           9.5933    3.5331    0.0000 C.3     1  UNL1       -0.0564
     34 H           8.3336    1.5100    0.0000 H       1  UNL1        0.0310
     35 H           7.1719    0.0335    0.0000 H       1  UNL1        0.0312
     36 H           8.4944    1.5977    0.0000 H       1  UNL1        0.0350
     37 H           5.4414   -2.9187    0.0000 H       1  UNL1        0.0312
     38 H           8.8140   -1.3782    0.0000 H       1  UNL1        0.0271
     39 H           9.6123   -1.3751    0.0000 H       1  UNL1        0.0271
     40 H           7.7986    1.6909    0.0000 H       1  UNL1        0.0268
     41 H           7.0005    1.7063    0.0000 H       1  UNL1        0.0268
     42 H           6.2380    1.2816    0.0000 H       1  UNL1        0.0268
     43 H           5.8309    0.5950    0.0000 H       1  UNL1        0.0268
     44 H           7.6092   -2.6416    0.0000 H       1  UNL1        0.0271
     45 H           8.0004   -1.9456    0.0000 H       1  UNL1        0.0271
     46 H           8.4911    2.5920    0.0000 H       1  UNL1        0.0742
     47 H          10.3274   -0.9549    0.0000 H       1  UNL1        0.0276
     48 H          10.7185   -0.2590    0.0000 H       1  UNL1        0.0276
     49 H           6.0196   -3.1097    0.0000 H       1  UNL1        0.0268
     50 H           6.8178   -3.1066    0.0000 H       1  UNL1        0.0268
     51 H          11.1714    0.5844    0.0000 H       1  UNL1        0.0276
     52 H          11.5699    1.2747    0.0000 H       1  UNL1        0.0276
     53 H           8.0599   -1.5313    0.0000 H       1  UNL1        0.0235
     54 H           8.8517   -1.9079    0.0000 H       1  UNL1        0.0235
     55 H           9.2283   -1.1160    0.0000 H       1  UNL1        0.0235
     56 H           4.8494    0.1401    0.0000 H       1  UNL1        0.0271
     57 H           4.0513    0.1555    0.0000 H       1  UNL1        0.0271
     58 H           7.5416   -2.0957    0.0000 H       1  UNL1        0.0235
     59 H           8.4151   -2.1721    0.0000 H       1  UNL1        0.0235
     60 H           8.4915   -1.2986    0.0000 H       1  UNL1        0.0235
     61 H          11.5699    2.0594    0.0000 H       1  UNL1        0.0272
     62 H          11.1714    2.7497    0.0000 H       1  UNL1        0.0272
     63 H           6.0745    0.0566    0.0000 H       1  UNL1        0.0235
     64 H           5.4593    0.6814    0.0000 H       1  UNL1        0.0235
     65 H           4.8346    0.0662    0.0000 H       1  UNL1        0.0235
     66 H           3.4020   -2.9265    0.0000 H       1  UNL1        0.0599
     67 H           3.2082   -0.3141    0.0000 H       1  UNL1        0.0290
     68 H           2.8011   -1.0007    0.0000 H       1  UNL1        0.0290
     69 H           3.3884   -3.2252    0.0000 H       1  UNL1        0.0236
     70 H           3.6186   -4.0712    0.0000 H       1  UNL1        0.0236
     71 H           4.4646   -3.8410    0.0000 H       1  UNL1        0.0236
     72 H           4.3908   -3.8413    0.0000 H       1  UNL1        0.0236
     73 H           5.2386   -4.0650    0.0000 H       1  UNL1        0.0236
     74 H           5.4622   -3.2172    0.0000 H       1  UNL1        0.0236
     75 H          11.1302    3.2231    0.0000 H       1  UNL1        0.0236
     76 H          10.9033    4.0700    0.0000 H       1  UNL1        0.0236
     77 H          10.0563    3.8431    0.0000 H       1  UNL1        0.0236
     78 H          10.1302    3.8431    0.0000 H       1  UNL1        0.0236
     79 H           9.2833    4.0700    0.0000 H       1  UNL1        0.0236
     80 H           9.0563    3.2231    0.0000 H       1  UNL1        0.0236
     81 H           2.0000   -2.2611    0.0000 H       1  UNL1        0.2098
@<TRIPOS>BOND
     1     1    16    1
     2     1    26    1
     3     2    28    1
     4     2    81    1
     5     3    26    2
     6     4     5    1
     7     4     6    1
     8     4    12    1
     9     4    22    1
    10     5     7    1
    11     5    15    1
    12     5    24    1
    13     6     8    1
    14     6    13    1
    15     6    34    1
    16     7     9    1
    17     7    14    1
    18     7    35    1
    19     8    10    1
    20     8    16    1
    21     8    36    1
    22     9    11    1
    23     9    23    1
    24     9    27    1
    25    10    17    1
    26    10    20    1
    27    10    26    1
    28    11    18    1
    29    11    19    1
    30    11    37    1
    31    12    17    1
    32    12    38    1
    33    12    39    1
    34    13    14    1
    35    13    40    1
    36    13    41    1
    37    14    42    1
    38    14    43    1
    39    15    18    1
    40    15    44    1
    41    15    45    1
    42    16    21    1
    43    16    46    1
    44    17    47    1
    45    17    48    1
    46    18    49    1
    47    18    50    1
    48    19    28    1
    49    19    30    1
    50    19    31    1
    51    20    25    1
    52    20    51    1
    53    20    52    1
    54    21    25    1
    55    21    32    1
    56    21    33    1
    57    22    53    1
    58    22    54    1
    59    22    55    1
    60    23    29    1
    61    23    56    1
    62    23    57    1
    63    24    58    1
    64    24    59    1
    65    24    60    1
    66    25    61    1
    67    25    62    1
    68    27    63    1
    69    27    64    1
    70    27    65    1
    71    28    29    1
    72    28    66    1
    73    29    67    1
    74    29    68    1
    75    30    69    1
    76    30    70    1
    77    30    71    1
    78    31    72    1
    79    31    73    1
    80    31    74    1
    81    32    75    1
    82    32    76    1
    83    32    77    1
    84    33    78    1
    85    33    79    1
    86    33    80    1
