@<TRIPOS>MOLECULE
IMPHY001667
 79 82 0 0 0
SMALL
GASTEIGER

@<TRIPOS>ATOM
      1 O           2.5357   -3.3979    0.0000 O.3     1  UNL1       -0.3915
      2 O          11.2472    3.2511    0.0000 O.3     1  UNL1       -0.3843
      3 C           7.9288   -0.3456    0.0000 C.3     1  UNL1       -0.0259
      4 C           7.9288   -1.3456    0.0000 C.3     1  UNL1       -0.0320
      5 C           7.0628   -1.8456    0.0000 C.3     1  UNL1       -0.0307
      6 C           6.1968   -1.3456    0.0000 C.3     1  UNL1       -0.0285
      7 C           8.8750   -0.0408    0.0000 C.3     1  UNL1       -0.0328
      8 C           7.0628    0.1544    0.0000 C.3     1  UNL1       -0.0468
      9 C           5.2868   -1.8524    0.0000 C.3     1  UNL1       -0.0078
     10 C           8.8750   -1.6503    0.0000 C.3     1  UNL1       -0.0492
     11 C           6.1968   -0.3456    0.0000 C.3     1  UNL1       -0.0486
     12 C           9.4586   -0.8456    0.0000 C.3     1  UNL1       -0.0492
     13 C           7.0789   -2.8871    0.0000 C.3     1  UNL1       -0.0311
     14 C           9.1857    0.9097    0.0000 C.3     1  UNL1       -0.0404
     15 C           7.9288    0.6544    0.0000 C.3     1  UNL1       -0.0590
     16 C           5.2787   -2.8940    0.0000 C.2     1  UNL1       -0.0648
     17 C           4.3599   -1.2883    0.0000 C.3     1  UNL1       -0.0413
     18 C           6.1808   -3.4148    0.0000 C.2     1  UNL1       -0.0839
     19 C           5.2945   -0.8525    0.0000 C.3     1  UNL1       -0.0556
     20 C           4.3433   -3.4438    0.0000 C.3     1  UNL1       -0.0051
     21 C           3.4120   -1.8163    0.0000 C.3     1  UNL1       -0.0258
     22 C          10.1642    1.1159    0.0000 C.3     1  UNL1       -0.0473
     23 C           3.4037   -2.9012    0.0000 C.3     1  UNL1        0.0590
     24 C           8.5179    1.6540    0.0000 C.3     1  UNL1       -0.0621
     25 C          10.4749    2.0664    0.0000 C.3     1  UNL1       -0.0199
     26 C          11.4534    2.2726    0.0000 C.3     1  UNL1        0.0862
     27 C          12.4319    2.4788    0.0000 C.3     1  UNL1       -0.0142
     28 C          11.6596    1.2941    0.0000 C.2     1  UNL1       -0.0597
     29 C          12.7425    3.4294    0.0000 C.3     1  UNL1       -0.0598
     30 C          13.0997    1.7346    0.0000 C.3     1  UNL1       -0.0598
     31 C          12.6101    0.9835    0.0000 C.2     1  UNL1       -0.0999
     32 H           8.0188   -2.1908    0.0000 H       1  UNL1        0.0309
     33 H           7.8022   -2.2649    0.0000 H       1  UNL1        0.0309
     34 H           6.9329   -0.9206    0.0000 H       1  UNL1        0.0312
     35 H           9.7148    0.0910    0.0000 H       1  UNL1        0.0309
     36 H           7.4613    0.6294    0.0000 H       1  UNL1        0.0271
     37 H           6.6643    0.6294    0.0000 H       1  UNL1        0.0271
     38 H           8.6240   -2.2172    0.0000 H       1  UNL1        0.0268
     39 H           9.4124   -1.9595    0.0000 H       1  UNL1        0.0268
     40 H           5.9847    0.2370    0.0000 H       1  UNL1        0.0268
     41 H           5.5862   -0.4532    0.0000 H       1  UNL1        0.0268
     42 H           9.9195   -1.2603    0.0000 H       1  UNL1        0.0268
     43 H           9.9195   -0.4308    0.0000 H       1  UNL1        0.0268
     44 H           7.2969   -3.4675    0.0000 H       1  UNL1        0.0310
     45 H           7.6880   -2.7716    0.0000 H       1  UNL1        0.0310
     46 H           9.3783    1.4990    0.0000 H       1  UNL1        0.0301
     47 H           8.5488    0.6544    0.0000 H       1  UNL1        0.0235
     48 H           7.9288    1.2744    0.0000 H       1  UNL1        0.0235
     49 H           7.3088    0.6544    0.0000 H       1  UNL1        0.0235
     50 H           4.7681   -0.8217    0.0000 H       1  UNL1        0.0274
     51 H           3.9700   -0.8063    0.0000 H       1  UNL1        0.0274
     52 H           6.1832   -4.0348    0.0000 H       1  UNL1        0.0572
     53 H           5.9145   -0.8572    0.0000 H       1  UNL1        0.0238
     54 H           5.2993   -0.2325    0.0000 H       1  UNL1        0.0238
     55 H           4.6745   -0.8477    0.0000 H       1  UNL1        0.0238
     56 H           3.9460   -3.9197    0.0000 H       1  UNL1        0.0335
     57 H           4.7443   -3.9166    0.0000 H       1  UNL1        0.0335
     58 H           3.2075   -1.2310    0.0000 H       1  UNL1        0.0290
     59 H           2.8004   -1.9177    0.0000 H       1  UNL1        0.0290
     60 H          10.1848    0.4962    0.0000 H       1  UNL1        0.0269
     61 H          10.7780    1.0285    0.0000 H       1  UNL1        0.0269
     62 H           2.8686   -2.5882    0.0000 H       1  UNL1        0.0596
     63 H           8.9793    2.0680    0.0000 H       1  UNL1        0.0233
     64 H           8.1038    2.1154    0.0000 H       1  UNL1        0.0233
     65 H           8.0564    1.2399    0.0000 H       1  UNL1        0.0233
     66 H          10.4543    2.6861    0.0000 H       1  UNL1        0.0296
     67 H           9.8611    2.1538    0.0000 H       1  UNL1        0.0296
     68 H           2.0000   -3.0858    0.0000 H       1  UNL1        0.2098
     69 H          12.0178    2.9403    0.0000 H       1  UNL1        0.0326
     70 H          11.1981    0.8801    0.0000 H       1  UNL1        0.0595
     71 H          10.6578    3.4438    0.0000 H       1  UNL1        0.2106
     72 H          13.3319    3.2368    0.0000 H       1  UNL1        0.0233
     73 H          12.9352    4.0187    0.0000 H       1  UNL1        0.0233
     74 H          12.1532    3.6220    0.0000 H       1  UNL1        0.0233
     75 H          12.6383    1.3205    0.0000 H       1  UNL1        0.0233
     76 H          13.5138    1.2731    0.0000 H       1  UNL1        0.0233
     77 H          13.5612    2.1486    0.0000 H       1  UNL1        0.0233
     78 H          12.7380    0.3768    0.0000 H       1  UNL1        0.0533
     79 H          13.0716    1.3975    0.0000 H       1  UNL1        0.0533
@<TRIPOS>BOND
     1    23     1    1
     2     1    68    1
     3     2    26    1
     4     2    71    1
     5     3     4    1
     6     3     7    1
     7     3     8    1
     8     3    15    1
     9     4     5    1
    10     4    10    1
    11     4    32    1
    12     5     6    1
    13     5    13    1
    14     5    33    1
    15     6     9    1
    16     6    11    1
    17     6    34    1
    18     7    12    1
    19     7    14    1
    20     7    35    1
    21     8    11    1
    22     8    36    1
    23     8    37    1
    24     9    16    1
    25     9    17    1
    26     9    19    1
    27    10    12    1
    28    10    38    1
    29    10    39    1
    30    11    40    1
    31    11    41    1
    32    12    42    1
    33    12    43    1
    34    13    18    1
    35    13    44    1
    36    13    45    1
    37    14    22    1
    38    14    24    1
    39    14    46    1
    40    15    47    1
    41    15    48    1
    42    15    49    1
    43    16    18    2
    44    16    20    1
    45    17    21    1
    46    17    50    1
    47    17    51    1
    48    18    52    1
    49    19    53    1
    50    19    54    1
    51    19    55    1
    52    20    23    1
    53    20    56    1
    54    20    57    1
    55    21    23    1
    56    21    58    1
    57    21    59    1
    58    22    25    1
    59    22    60    1
    60    22    61    1
    61    23    62    1
    62    24    63    1
    63    24    64    1
    64    24    65    1
    65    25    26    1
    66    25    66    1
    67    25    67    1
    68    26    27    1
    69    26    28    1
    70    27    29    1
    71    27    30    1
    72    27    69    1
    73    28    31    2
    74    28    70    1
    75    29    72    1
    76    29    73    1
    77    29    74    1
    78    30    75    1
    79    30    76    1
    80    30    77    1
    81    31    78    1
    82    31    79    1
