@<TRIPOS>MOLECULE
IMPHY011607
 39 41 0 0 0
SMALL
GASTEIGER

@<TRIPOS>ATOM
      1 O           6.3820    0.6952    0.0000 O.3     1  UNL1       -0.3599
      2 O           7.2641   -1.8463    0.0000 O.3     1  UNL1       -0.4522
      3 O           9.0343   -0.8494    0.0000 O.3     1  UNL1       -0.3854
      4 O           9.0501    1.1988    0.0000 O.3     1  UNL1       -0.3865
      5 O           8.1403    2.7263    0.0000 O.3     1  UNL1       -0.3924
      6 O           4.6497    0.6883    0.0000 O.3     1  UNL1       -0.5030
      7 O           6.3981   -3.3463    0.0000 O.2     1  UNL1       -0.2449
      8 O           2.8680   -0.3221    0.0000 O.3     1  UNL1       -0.4885
      9 O           2.8680   -2.3704    0.0000 O.3     1  UNL1       -0.5032
     10 C           7.2641   -0.8463    0.0000 C.3     1  UNL1        0.1617
     11 C           6.3981   -0.3463    0.0000 C.3     1  UNL1        0.1278
     12 C           8.1741   -0.3394    0.0000 C.3     1  UNL1        0.1231
     13 C           8.1821    0.7022    0.0000 C.3     1  UNL1        0.1128
     14 C           7.2800    1.2230    0.0000 C.3     1  UNL1        0.1109
     15 C           5.5320   -0.8463    0.0000 C.ar    1  UNL1        0.0440
     16 C           7.2762    2.2230    0.0000 C.3     1  UNL1        0.0729
     17 C           5.5320   -1.8463    0.0000 C.ar    1  UNL1        0.0719
     18 C           6.3981   -2.3463    0.0000 C.2     1  UNL1        0.3402
     19 C           4.6381   -0.3116    0.0000 C.ar    1  UNL1        0.1688
     20 C           4.6381   -2.3810    0.0000 C.ar    1  UNL1       -0.0020
     21 C           3.7320   -0.8255    0.0000 C.ar    1  UNL1        0.2035
     22 C           3.7320   -1.8671    0.0000 C.ar    1  UNL1        0.1630
     23 C           2.0000   -0.8188    0.0000 C.3     1  UNL1        0.0791
     24 H           7.9969   -1.2770    0.0000 H       1  UNL1        0.0791
     25 H           7.1309    0.0844    0.0000 H       1  UNL1        0.0686
     26 H           8.7140   -0.0346    0.0000 H       1  UNL1        0.0658
     27 H           8.7173    0.3891    0.0000 H       1  UNL1        0.0647
     28 H           6.7413    1.5299    0.0000 H       1  UNL1        0.0646
     29 H           7.0619    2.8048    0.0000 H       1  UNL1        0.0584
     30 H           6.6660    2.1130    0.0000 H       1  UNL1        0.0584
     31 H           9.5748   -0.5457    0.0000 H       1  UNL1        0.2101
     32 H           9.5858    0.8867    0.0000 H       1  UNL1        0.2100
     33 H           4.6453   -3.0009    0.0000 H       1  UNL1        0.0663
     34 H           8.1379    3.3463    0.0000 H       1  UNL1        0.2095
     35 H           4.1164    1.0045    0.0000 H       1  UNL1        0.2923
     36 H           2.8703   -2.9904    0.0000 H       1  UNL1        0.2923
     37 H           1.6921   -0.2807    0.0000 H       1  UNL1        0.0660
     38 H           1.4619   -1.1267    0.0000 H       1  UNL1        0.0660
     39 H           2.3079   -1.3569    0.0000 H       1  UNL1        0.0660
@<TRIPOS>BOND
     1     1    11    1
     2     1    14    1
     3     2    10    1
     4     2    18    1
     5    12     3    1
     6     3    31    1
     7    13     4    1
     8     4    32    1
     9     5    16    1
    10     5    34    1
    11     6    19    1
    12     6    35    1
    13     7    18    2
    14     8    21    1
    15     8    23    1
    16     9    22    1
    17     9    36    1
    18    10    11    1
    19    10    12    1
    20    10    24    1
    21    11    15    1
    22    11    25    1
    23    12    13    1
    24    12    26    1
    25    13    14    1
    26    13    27    1
    27    14    16    1
    28    14    28    1
    29    15    17   ar
    30    15    19   ar
    31    16    29    1
    32    16    30    1
    33    17    18    1
    34    17    20   ar
    35    19    21   ar
    36    20    22   ar
    37    20    33    1
    38    21    22   ar
    39    23    37    1
    40    23    38    1
    41    23    39    1
