@<TRIPOS>MOLECULE
IMPHY001807
 47 49 0 0 0
SMALL
GASTEIGER

@<TRIPOS>ATOM
      1 O           6.5468    3.0062    0.0000 O.3     1  UNL1       -0.4637
      2 O           8.0413    2.0357    0.0000 O.2     1  UNL1       -0.2505
      3 O           3.7320    1.8038    0.0000 O.2     1  UNL1       -0.2916
      4 O           9.9740    1.1391    0.0000 O.3     1  UNL1       -0.4915
      5 O           2.8660   -1.6962    0.0000 O.3     1  UNL1       -0.4914
      6 O          10.3898   -0.8172    0.0000 O.3     1  UNL1       -0.5033
      7 O           4.5981   -2.6962    0.0000 O.3     1  UNL1       -0.5033
      8 C           6.3776    1.3970    0.0000 C.3     1  UNL1        0.0733
      9 C           5.4641    1.8038    0.0000 C.3     1  UNL1        0.0694
     10 C           6.5856    0.4189    0.0000 C.3     1  UNL1       -0.0138
     11 C           5.5686    2.7983    0.0000 C.3     1  UNL1        0.1031
     12 C           7.0468    2.1402    0.0000 C.2     1  UNL1        0.3113
     13 C           4.5981    1.3038    0.0000 C.2     1  UNL1        0.1704
     14 C           7.5366    0.1099    0.0000 C.ar    1  UNL1       -0.0429
     15 C           4.5981    0.3038    0.0000 C.ar    1  UNL1        0.0215
     16 C           8.2798    0.7790    0.0000 C.ar    1  UNL1       -0.0131
     17 C           7.7445   -0.8683    0.0000 C.ar    1  UNL1       -0.0549
     18 C           3.7320   -0.1962    0.0000 C.ar    1  UNL1       -0.0058
     19 C           5.4641   -0.1962    0.0000 C.ar    1  UNL1       -0.0476
     20 C           9.2308    0.4700    0.0000 C.ar    1  UNL1        0.1615
     21 C           8.6956   -1.1773    0.0000 C.ar    1  UNL1       -0.0163
     22 C           9.4387   -0.5082    0.0000 C.ar    1  UNL1        0.1585
     23 C           3.7320   -1.1962    0.0000 C.ar    1  UNL1        0.1619
     24 C           5.4641   -1.1962    0.0000 C.ar    1  UNL1       -0.0159
     25 C           4.5981   -1.6962    0.0000 C.ar    1  UNL1        0.1585
     26 C          10.9250    0.8301    0.0000 C.3     1  UNL1        0.0790
     27 C           2.0000   -1.1962    0.0000 C.3     1  UNL1        0.0790
     28 H           5.8958    1.0069    0.0000 H       1  UNL1        0.0425
     29 H           4.9441    2.1415    0.0000 H       1  UNL1        0.0422
     30 H           5.9659    0.3973    0.0000 H       1  UNL1        0.0321
     31 H           6.4993   -0.1951    0.0000 H       1  UNL1        0.0321
     32 H           5.5038    3.4149    0.0000 H       1  UNL1        0.0705
     33 H           4.9486    2.7983    0.0000 H       1  UNL1        0.0705
     34 H           8.1509    1.3855    0.0000 H       1  UNL1        0.0658
     35 H           7.2838   -1.2831    0.0000 H       1  UNL1        0.0621
     36 H           3.1951    0.1138    0.0000 H       1  UNL1        0.0662
     37 H           6.0010    0.1138    0.0000 H       1  UNL1        0.0626
     38 H           8.8245   -1.7837    0.0000 H       1  UNL1        0.0655
     39 H           6.0010   -1.5062    0.0000 H       1  UNL1        0.0655
     40 H          10.5187   -1.4236    0.0000 H       1  UNL1        0.2923
     41 H          10.7334    0.2405    0.0000 H       1  UNL1        0.0660
     42 H          11.5147    0.6385    0.0000 H       1  UNL1        0.0660
     43 H          11.1166    1.4198    0.0000 H       1  UNL1        0.0660
     44 H           5.1350   -3.0062    0.0000 H       1  UNL1        0.2923
     45 H           2.3100   -0.6593    0.0000 H       1  UNL1        0.0660
     46 H           1.4631   -0.8862    0.0000 H       1  UNL1        0.0660
     47 H           1.6900   -1.7332    0.0000 H       1  UNL1        0.0660
@<TRIPOS>BOND
     1     1    11    1
     2     1    12    1
     3     2    12    2
     4     3    13    2
     5     4    20    1
     6     4    26    1
     7     5    23    1
     8     5    27    1
     9     6    22    1
    10     6    40    1
    11     7    25    1
    12     7    44    1
    13     8     9    1
    14     8    10    1
    15     8    12    1
    16     8    28    1
    17     9    11    1
    18     9    13    1
    19     9    29    1
    20    10    14    1
    21    10    30    1
    22    10    31    1
    23    11    32    1
    24    11    33    1
    25    13    15    1
    26    14    16   ar
    27    14    17   ar
    28    15    18   ar
    29    15    19   ar
    30    16    20   ar
    31    16    34    1
    32    17    21   ar
    33    17    35    1
    34    18    23   ar
    35    18    36    1
    36    19    24   ar
    37    19    37    1
    38    20    22   ar
    39    21    22   ar
    40    21    38    1
    41    23    25   ar
    42    24    25   ar
    43    24    39    1
    44    26    41    1
    45    26    42    1
    46    26    43    1
    47    27    45    1
    48    27    46    1
    49    27    47    1
