@<TRIPOS>MOLECULE
IMPHY005179
 72 77 0 0 0
SMALL
GASTEIGER

@<TRIPOS>ATOM
      1 O           3.7998   -3.1250    0.0000 O.3     1  UNL1       -0.3607
      2 O           6.4344   -1.6177    0.0000 O.3     1  UNL1       -0.3877
      3 O           2.9176   -3.6592    0.0000 O.3     1  UNL1       -0.3848
      4 O           2.9176    0.4100    0.0000 O.2     1  UNL1       -0.2920
      5 O           9.0542    2.8286    0.0000 O.3     1  UNL1       -0.4575
      6 O          10.3522    3.9753    0.0000 O.2     1  UNL1       -0.2453
      7 C           5.5321   -1.1246    0.0000 C.3     1  UNL1       -0.0054
      8 C           3.8000   -2.1246    0.0000 C.3     1  UNL1        0.1376
      9 C           4.6660   -0.6246    0.0000 C.3     1  UNL1       -0.0202
     10 C           6.4421   -0.6177    0.0000 C.3     1  UNL1        0.0749
     11 C           3.8000   -1.1246    0.0000 C.3     1  UNL1        0.0674
     12 C           6.4501    0.4239    0.0000 C.3     1  UNL1        0.0002
     13 C           4.6660   -2.6246    0.0000 C.3     1  UNL1        0.0926
     14 C           5.5321   -2.1246    0.0000 C.3     1  UNL1       -0.0180
     15 C           7.4381    0.7337    0.0000 C.3     1  UNL1       -0.0270
     16 C           4.6500    0.4170    0.0000 C.3     1  UNL1       -0.0483
     17 C           5.5480    0.9447    0.0000 C.3     1  UNL1       -0.0444
     18 C           7.4252   -0.9427    0.0000 C.3     1  UNL1       -0.0229
     19 C           8.0396   -0.1092    0.0000 C.3     1  UNL1       -0.0466
     20 C           2.9061   -2.6592    0.0000 C.3     1  UNL1        0.1060
     21 C           3.8000   -0.1246    0.0000 C.3     1  UNL1       -0.0494
     22 C           2.9061   -0.5899    0.0000 C.2     1  UNL1        0.1649
     23 C           6.4578    1.4239    0.0000 C.3     1  UNL1       -0.0567
     24 C           7.7561    1.6818    0.0000 C.3     1  UNL1       -0.0029
     25 C           2.0000   -2.1454    0.0000 C.2     1  UNL1       -0.0497
     26 C           2.0000   -1.1037    0.0000 C.2     1  UNL1       -0.0200
     27 C           8.7362    1.8805    0.0000 C.3     1  UNL1        0.1099
     28 C           7.0940    2.4312    0.0000 C.3     1  UNL1       -0.0588
     29 C           9.3983    1.1310    0.0000 C.3     1  UNL1        0.0063
     30 C          10.3783    1.3297    0.0000 C.2     1  UNL1       -0.0595
     31 C          10.0342    3.0272    0.0000 C.2     1  UNL1        0.3351
     32 C          10.6963    2.2778    0.0000 C.2     1  UNL1        0.0326
     33 C          11.0404    0.5803    0.0000 C.3     1  UNL1       -0.0429
     34 C          11.6764    2.4765    0.0000 C.3     1  UNL1       -0.0330
     35 H           6.2649   -1.5552    0.0000 H       1  UNL1        0.0332
     36 H           5.3989   -0.1939    0.0000 H       1  UNL1        0.0315
     37 H           5.0911   -3.3606    0.0000 H       1  UNL1        0.0626
     38 H           5.7441   -2.7072    0.0000 H       1  UNL1        0.0295
     39 H           6.1426   -2.0169    0.0000 H       1  UNL1        0.0295
     40 H           8.2788    0.8591    0.0000 H       1  UNL1        0.0311
     41 H           4.4319    0.9974    0.0000 H       1  UNL1        0.0269
     42 H           4.0408    0.3015    0.0000 H       1  UNL1        0.0269
     43 H           5.9453    1.4207    0.0000 H       1  UNL1        0.0272
     44 H           5.1470    1.4176    0.0000 H       1  UNL1        0.0272
     45 H           7.1698   -1.5077    0.0000 H       1  UNL1        0.0293
     46 H           7.9602   -1.2561    0.0000 H       1  UNL1        0.0293
     47 H           8.4972   -0.5275    0.0000 H       1  UNL1        0.0269
     48 H           8.5036    0.3020    0.0000 H       1  UNL1        0.0269
     49 H           2.3721   -2.9744    0.0000 H       1  UNL1        0.0668
     50 H           4.4200   -0.1246    0.0000 H       1  UNL1        0.0240
     51 H           3.8000    0.4954    0.0000 H       1  UNL1        0.0240
     52 H           3.1800   -0.1246    0.0000 H       1  UNL1        0.0240
     53 H           7.0778    1.4191    0.0000 H       1  UNL1        0.0236
     54 H           6.4626    2.0438    0.0000 H       1  UNL1        0.0236
     55 H           5.8378    1.4286    0.0000 H       1  UNL1        0.0236
     56 H           7.9532    2.2696    0.0000 H       1  UNL1        0.0337
     57 H           6.9689   -1.9318    0.0000 H       1  UNL1        0.2102
     58 H           1.4643   -2.4574    0.0000 H       1  UNL1        0.0599
     59 H           1.4643   -0.7917    0.0000 H       1  UNL1        0.0650
     60 H           9.5692    2.0493    0.0000 H       1  UNL1        0.0740
     61 H           7.5587    2.8417    0.0000 H       1  UNL1        0.0234
     62 H           6.6835    2.8959    0.0000 H       1  UNL1        0.0234
     63 H           6.6294    2.0207    0.0000 H       1  UNL1        0.0234
     64 H           2.3843   -3.9753    0.0000 H       1  UNL1        0.2103
     65 H           8.8694    0.8075    0.0000 H       1  UNL1        0.0346
     66 H           9.6251    0.5540    0.0000 H       1  UNL1        0.0346
     67 H          10.5758    0.1698    0.0000 H       1  UNL1        0.0275
     68 H          11.4509    0.1156    0.0000 H       1  UNL1        0.0275
     69 H          11.5051    0.9908    0.0000 H       1  UNL1        0.0275
     70 H          11.7995    1.8688    0.0000 H       1  UNL1        0.0280
     71 H          12.2840    2.5996    0.0000 H       1  UNL1        0.0280
     72 H          11.5532    3.0841    0.0000 H       1  UNL1        0.0280
@<TRIPOS>BOND
     1     8     1    1
     2     1    13    1
     3    10     2    1
     4     2    57    1
     5    20     3    1
     6     3    64    1
     7     4    22    2
     8     5    27    1
     9     5    31    1
    10     6    31    2
    11     7     9    1
    12     7    10    1
    13     7    14    1
    14     7    35    1
    15     8    11    1
    16     8    13    1
    17     8    20    1
    18     9    11    1
    19     9    16    1
    20     9    36    1
    21    10    12    1
    22    10    18    1
    23    11    21    1
    24    11    22    1
    25    12    15    1
    26    12    17    1
    27    12    23    1
    28    13    14    1
    29    13    37    1
    30    14    38    1
    31    14    39    1
    32    15    19    1
    33    15    24    1
    34    15    40    1
    35    16    17    1
    36    16    41    1
    37    16    42    1
    38    17    43    1
    39    17    44    1
    40    18    19    1
    41    18    45    1
    42    18    46    1
    43    19    47    1
    44    19    48    1
    45    20    25    1
    46    20    49    1
    47    21    50    1
    48    21    51    1
    49    21    52    1
    50    22    26    1
    51    23    53    1
    52    23    54    1
    53    23    55    1
    54    24    27    1
    55    24    28    1
    56    24    56    1
    57    25    26    2
    58    25    58    1
    59    26    59    1
    60    27    29    1
    61    27    60    1
    62    28    61    1
    63    28    62    1
    64    28    63    1
    65    29    30    1
    66    29    65    1
    67    29    66    1
    68    30    32    2
    69    30    33    1
    70    31    32    1
    71    32    34    1
    72    33    67    1
    73    33    68    1
    74    33    69    1
    75    34    70    1
    76    34    71    1
    77    34    72    1
