@<TRIPOS>MOLECULE
IMPHY007107
 60 62 0 0 0
SMALL
GASTEIGER

@<TRIPOS>ATOM
      1 O           4.5981   -0.0019    0.0000 O.2     1  UNL1       -0.2915
      2 O           7.4337   -0.8492    0.0000 O.3     1  UNL1       -0.5058
      3 O           4.7801    1.3774    0.0000 O.3     1  UNL1       -0.5058
      4 O           8.0352    2.5622    0.0000 O.3     1  UNL1       -0.4949
      5 C           5.4641   -1.5019    0.0000 C.3     1  UNL1        0.0362
      6 C           6.3301   -2.0019    0.0000 C.3     1  UNL1       -0.0063
      7 C           4.5981   -2.0019    0.0000 C.3     1  UNL1       -0.0020
      8 C           4.5981   -3.0019    0.0000 C.3     1  UNL1       -0.0270
      9 C           6.3301   -3.0019    0.0000 C.2     1  UNL1       -0.0724
     10 C           7.3149   -1.8283    0.0000 C.3     1  UNL1       -0.0273
     11 C           5.4641   -3.5019    0.0000 C.2     1  UNL1       -0.0841
     12 C           3.7320   -1.5019    0.0000 C.ar    1  UNL1       -0.0433
     13 C           5.4641   -0.5019    0.0000 C.2     1  UNL1        0.1744
     14 C           7.1962   -3.5019    0.0000 C.3     1  UNL1       -0.0435
     15 C           7.9577   -2.5943    0.0000 C.2     1  UNL1       -0.0847
     16 C           6.1069    0.2641    0.0000 C.ar    1  UNL1        0.1006
     17 C           3.7320   -0.5019    0.0000 C.ar    1  UNL1       -0.0583
     18 C           2.8660   -2.0019    0.0000 C.ar    1  UNL1       -0.0583
     19 C           8.9425   -2.4207    0.0000 C.2     1  UNL1       -0.0796
     20 C           7.0917    0.0905    0.0000 C.ar    1  UNL1        0.1343
     21 C           5.7649    1.2038    0.0000 C.ar    1  UNL1        0.1343
     22 C           2.8660   -0.0019    0.0000 C.ar    1  UNL1       -0.0615
     23 C           2.0000   -1.5019    0.0000 C.ar    1  UNL1       -0.0615
     24 C           2.0000   -0.5019    0.0000 C.ar    1  UNL1       -0.0617
     25 C           9.5853   -3.1867    0.0000 C.3     1  UNL1       -0.0440
     26 C           9.2846   -1.4810    0.0000 C.3     1  UNL1       -0.0440
     27 C           7.7345    0.8565    0.0000 C.ar    1  UNL1        0.0225
     28 C           6.4077    1.9698    0.0000 C.ar    1  UNL1        0.0225
     29 C           7.3925    1.7962    0.0000 C.ar    1  UNL1        0.1271
     30 C           7.6932    3.5019    0.0000 C.3     1  UNL1        0.0788
     31 H           6.0010   -1.1919    0.0000 H       1  UNL1        0.0393
     32 H           6.4378   -1.3914    0.0000 H       1  UNL1        0.0356
     33 H           4.5981   -1.3819    0.0000 H       1  UNL1        0.0359
     34 H           3.9875   -2.8943    0.0000 H       1  UNL1        0.0313
     35 H           4.3860   -3.5845    0.0000 H       1  UNL1        0.0313
     36 H           7.8519   -1.5183    0.0000 H       1  UNL1        0.0313
     37 H           7.1029   -1.2457    0.0000 H       1  UNL1        0.0313
     38 H           5.4641   -4.1219    0.0000 H       1  UNL1        0.0572
     39 H           6.8862   -4.0389    0.0000 H       1  UNL1        0.0274
     40 H           7.7331   -3.8119    0.0000 H       1  UNL1        0.0274
     41 H           7.5062   -2.9650    0.0000 H       1  UNL1        0.0274
     42 H           7.7457   -3.1769    0.0000 H       1  UNL1        0.0572
     43 H           4.2690   -0.1919    0.0000 H       1  UNL1        0.0620
     44 H           2.8660   -2.6219    0.0000 H       1  UNL1        0.0620
     45 H           2.8660    0.6181    0.0000 H       1  UNL1        0.0618
     46 H           1.4631   -1.8119    0.0000 H       1  UNL1        0.0618
     47 H           1.4631   -0.1919    0.0000 H       1  UNL1        0.0618
     48 H           8.3451    0.7488    0.0000 H       1  UNL1        0.0691
     49 H           6.1956    2.5525    0.0000 H       1  UNL1        0.0691
     50 H           9.1104   -3.5853    0.0000 H       1  UNL1        0.0274
     51 H           9.9838   -3.6617    0.0000 H       1  UNL1        0.0274
     52 H          10.0603   -2.7882    0.0000 H       1  UNL1        0.0274
     53 H           9.8672   -1.6930    0.0000 H       1  UNL1        0.0274
     54 H           9.4966   -0.8984    0.0000 H       1  UNL1        0.0274
     55 H           8.7019   -1.2689    0.0000 H       1  UNL1        0.0274
     56 H           8.0443   -0.9569    0.0000 H       1  UNL1        0.2922
     57 H           4.5680    1.9601    0.0000 H       1  UNL1        0.2922
     58 H           8.2758    3.7140    0.0000 H       1  UNL1        0.0660
     59 H           7.4812    4.0845    0.0000 H       1  UNL1        0.0660
     60 H           7.1106    3.2899    0.0000 H       1  UNL1        0.0660
@<TRIPOS>BOND
     1     1    13    2
     2     2    20    1
     3     2    56    1
     4     3    21    1
     5     3    57    1
     6     4    29    1
     7     4    30    1
     8     5     6    1
     9     5     7    1
    10     5    13    1
    11     5    31    1
    12     6     9    1
    13     6    10    1
    14     6    32    1
    15     7     8    1
    16     7    12    1
    17     7    33    1
    18     8    11    1
    19     8    34    1
    20     8    35    1
    21     9    11    2
    22     9    14    1
    23    10    15    1
    24    10    36    1
    25    10    37    1
    26    11    38    1
    27    12    17   ar
    28    12    18   ar
    29    13    16    1
    30    14    39    1
    31    14    40    1
    32    14    41    1
    33    15    19    2
    34    15    42    1
    35    16    20   ar
    36    16    21   ar
    37    17    22   ar
    38    17    43    1
    39    18    23   ar
    40    18    44    1
    41    19    25    1
    42    19    26    1
    43    20    27   ar
    44    21    28   ar
    45    22    24   ar
    46    22    45    1
    47    23    24   ar
    48    23    46    1
    49    24    47    1
    50    25    50    1
    51    25    51    1
    52    25    52    1
    53    26    53    1
    54    26    54    1
    55    26    55    1
    56    27    29   ar
    57    27    48    1
    58    28    29   ar
    59    28    49    1
    60    30    58    1
    61    30    59    1
    62    30    60    1
