@<TRIPOS>MOLECULE
IMPHY011598
 38 40 0 0 0
SMALL
GASTEIGER

@<TRIPOS>ATOM
      1 O           3.0291   -2.4287    0.0000 O.2     1  UNL1       -0.2924
      2 C           4.5772   -0.3664    0.0000 C.3     1  UNL1        0.0073
      3 C           4.6841    0.8104    0.0000 C.3     1  UNL1       -0.0218
      4 C           4.0772    1.8243    0.0000 C.3     1  UNL1       -0.0313
      5 C           5.4782    0.0675    0.0000 C.3     1  UNL1       -0.0336
      6 C           3.6763    0.0675    0.0000 C.2     1  UNL1       -0.0557
      7 C           3.4538    1.0424    0.0000 C.3     1  UNL1       -0.0272
      8 C           5.0772    1.8243    0.0000 C.3     1  UNL1       -0.0491
      9 C           4.4413   -1.3511    0.0000 C.3     1  UNL1        0.0202
     10 C           5.7007    1.0424    0.0000 C.3     1  UNL1       -0.0494
     11 C           5.5796    1.5319    0.0000 C.3     1  UNL1       -0.0587
     12 C           5.8040    0.5489    0.0000 C.3     1  UNL1       -0.0587
     13 C           2.9912   -0.6528    0.0000 C.2     1  UNL1       -0.0082
     14 C           3.4630   -1.5278    0.0000 C.2     1  UNL1        0.1598
     15 C           6.2600   -0.5560    0.0000 C.3     1  UNL1       -0.0616
     16 C           2.0000   -0.5203    0.0000 C.3     1  UNL1       -0.0364
     17 H           3.8881    2.6530    0.0000 H       1  UNL1        0.0309
     18 H           5.4088   -0.5486    0.0000 H       1  UNL1        0.0307
     19 H           3.0672    1.5272    0.0000 H       1  UNL1        0.0313
     20 H           2.8952    0.7734    0.0000 H       1  UNL1        0.0313
     21 H           5.6358    2.0933    0.0000 H       1  UNL1        0.0268
     22 H           4.9393    2.4287    0.0000 H       1  UNL1        0.0268
     23 H           4.4867   -1.9694    0.0000 H       1  UNL1        0.0354
     24 H           5.0609   -1.3709    0.0000 H       1  UNL1        0.0354
     25 H           6.2593    0.7734    0.0000 H       1  UNL1        0.0268
     26 H           6.0873    1.5272    0.0000 H       1  UNL1        0.0268
     27 H           5.6630   -0.0548    0.0000 H       1  UNL1        0.0235
     28 H           6.4077    0.4079    0.0000 H       1  UNL1        0.0235
     29 H           5.9450    1.1527    0.0000 H       1  UNL1        0.0235
     30 H           5.9686    1.0491    0.0000 H       1  UNL1        0.0235
     31 H           6.0624    1.9209    0.0000 H       1  UNL1        0.0235
     32 H           5.1906    2.0147    0.0000 H       1  UNL1        0.0235
     33 H           5.8735   -1.0407    0.0000 H       1  UNL1        0.0233
     34 H           6.7448   -0.9425    0.0000 H       1  UNL1        0.0233
     35 H           6.6466   -0.0712    0.0000 H       1  UNL1        0.0233
     36 H           2.0822    0.0943    0.0000 H       1  UNL1        0.0279
     37 H           1.3855   -0.4381    0.0000 H       1  UNL1        0.0279
     38 H           1.9178   -1.1348    0.0000 H       1  UNL1        0.0279
@<TRIPOS>BOND
     1     1    14    2
     2     2     3    1
     3     2     5    1
     4     2     6    1
     5     2     9    1
     6     3     4    1
     7     3    11    1
     8     3    12    1
     9     4     7    1
    10     4     8    1
    11     4    17    1
    12     5    10    1
    13     5    15    1
    14     5    18    1
    15     6     7    1
    16     6    13    2
    17     7    19    1
    18     7    20    1
    19     8    10    1
    20     8    21    1
    21     8    22    1
    22     9    14    1
    23     9    23    1
    24     9    24    1
    25    10    25    1
    26    10    26    1
    27    11    30    1
    28    11    31    1
    29    11    32    1
    30    12    27    1
    31    12    28    1
    32    12    29    1
    33    13    14    1
    34    13    16    1
    35    15    33    1
    36    15    34    1
    37    15    35    1
    38    16    36    1
    39    16    37    1
    40    16    38    1
