@<TRIPOS>MOLECULE
IMPHY009012
 46 48 0 0 0
SMALL
GASTEIGER

@<TRIPOS>ATOM
      1 O           5.5923   -2.9914    0.0000 O.3     1  UNL1       -0.4929
      2 O           2.6049    0.8786    0.0000 O.3     1  UNL1       -0.5047
      3 N           8.1234    2.0524    0.0000 N.3     1  UNL1       -0.3025
      4 N           4.7273    0.2796    0.0000 N.ar    1  UNL1       -0.3498
      5 N           7.2547   -0.8447    0.0000 N.ar    1  UNL1       -0.2541
      6 C           5.5364   -0.3082    0.0000 C.ar    1  UNL1        0.0727
      7 C           6.8498    0.8786    0.0000 C.3     1  UNL1        0.0044
      8 C           7.8254    1.0978    0.0000 C.3     1  UNL1        0.0043
      9 C           6.5518   -0.0760    0.0000 C.ar    1  UNL1        0.0665
     10 C           5.2273   -1.2593    0.0000 C.ar    1  UNL1        0.0524
     11 C           4.2273   -1.2593    0.0000 C.ar    1  UNL1        0.0146
     12 C           3.9183   -0.3082    0.0000 C.ar    1  UNL1        0.0896
     13 C           9.0991    2.2716    0.0000 C.3     1  UNL1       -0.0039
     14 C           7.4458    2.7877    0.0000 C.3     1  UNL1       -0.0039
     15 C           5.9123   -2.0440    0.0000 C.ar    1  UNL1        0.1478
     16 C           3.5424   -2.0440    0.0000 C.ar    1  UNL1       -0.0517
     17 C           2.9029   -0.0760    0.0000 C.ar    1  UNL1        0.1407
     18 C           6.9328   -1.8353    0.0000 C.ar    1  UNL1        0.0702
     19 C           9.3971    3.2261    0.0000 C.3     1  UNL1       -0.0524
     20 C           7.7438    3.7423    0.0000 C.3     1  UNL1       -0.0524
     21 C           2.5219   -1.8353    0.0000 C.ar    1  UNL1       -0.0576
     22 C           2.2000   -0.8447    0.0000 C.ar    1  UNL1       -0.0181
     23 C           6.2528   -3.7423    0.0000 C.3     1  UNL1        0.0789
     24 H           6.8210    1.4979    0.0000 H       1  UNL1        0.0341
     25 H           6.2348    0.9578    0.0000 H       1  UNL1        0.0341
     26 H           7.8542    0.4785    0.0000 H       1  UNL1        0.0430
     27 H           8.4404    1.0186    0.0000 H       1  UNL1        0.0430
     28 H           4.7273    0.8996    0.0000 H       1  UNL1        0.1661
     29 H           6.8950    3.0724    0.0000 H       1  UNL1        0.0424
     30 H           7.0697    2.2948    0.0000 H       1  UNL1        0.0424
     31 H           9.1279    1.6522    0.0000 H       1  UNL1        0.0424
     32 H           9.7140    2.1924    0.0000 H       1  UNL1        0.0424
     33 H           3.7408   -2.6314    0.0000 H       1  UNL1        0.0624
     34 H           7.3459   -2.2977    0.0000 H       1  UNL1        0.0867
     35 H           9.9890    3.0414    0.0000 H       1  UNL1        0.0242
     36 H           8.3356    3.5575    0.0000 H       1  UNL1        0.0242
     37 H           7.9285    4.3341    0.0000 H       1  UNL1        0.0242
     38 H           7.1519    3.9270    0.0000 H       1  UNL1        0.0242
     39 H           9.5819    3.8180    0.0000 H       1  UNL1        0.0242
     40 H           8.8053    3.4109    0.0000 H       1  UNL1        0.0242
     41 H           2.1088   -2.2977    0.0000 H       1  UNL1        0.0619
     42 H           1.5940   -0.7134    0.0000 H       1  UNL1        0.0655
     43 H           2.0000    1.0145    0.0000 H       1  UNL1        0.2922
     44 H           5.7873   -4.1518    0.0000 H       1  UNL1        0.0660
     45 H           6.6623   -4.2078    0.0000 H       1  UNL1        0.0660
     46 H           6.7183   -3.3328    0.0000 H       1  UNL1        0.0660
@<TRIPOS>BOND
     1     1    15    1
     2     1    23    1
     3     2    17    1
     4     2    43    1
     5     3     8    1
     6     3    13    1
     7     3    14    1
     8     4     6   ar
     9     4    12   ar
    10     4    28    1
    11     5     9   ar
    12     5    18   ar
    13     6     9   ar
    14     6    10   ar
    15     7     8    1
    16     7     9    1
    17     7    24    1
    18     7    25    1
    19     8    26    1
    20     8    27    1
    21    10    11   ar
    22    10    15   ar
    23    11    12   ar
    24    11    16   ar
    25    12    17   ar
    26    13    19    1
    27    13    31    1
    28    13    32    1
    29    14    20    1
    30    14    29    1
    31    14    30    1
    32    15    18   ar
    33    16    21   ar
    34    16    33    1
    35    17    22   ar
    36    18    34    1
    37    19    35    1
    38    19    39    1
    39    19    40    1
    40    20    36    1
    41    20    37    1
    42    20    38    1
    43    21    22   ar
    44    21    41    1
    45    22    42    1
    46    23    44    1
    47    23    45    1
    48    23    46    1
