@<TRIPOS>MOLECULE
IMPHY009067
 59 65 0 0 0
SMALL
GASTEIGER

@<TRIPOS>ATOM
      1 O           8.7037   -0.9710    0.0000 O.3     1  UNL1       -0.4141
      2 O           6.7960   -4.8889    0.0000 O.3     1  UNL1       -0.4929
      3 O           2.2298    2.8874    0.0000 O.2     1  UNL1       -0.2631
      4 O           2.0000    0.8520    0.0000 O.2     1  UNL1       -0.2821
      5 N           5.6097    0.6283    0.0000 N.ar    1  UNL1       -0.3450
      6 N           3.9900    2.6992    0.0000 N.ar    1  UNL1       -0.2712
      7 N           8.4531   -1.9391    0.0000 N.ar    1  UNL1       -0.1802
      8 N           5.7247   -2.3940    0.0000 N.ar    1  UNL1       -0.2540
      9 C           4.7990    2.1114    0.0000 C.ar    1  UNL1        0.0815
     10 C           4.7061    1.0739    0.0000 C.ar    1  UNL1        0.0705
     11 C           5.6080    2.6992    0.0000 C.ar    1  UNL1        0.0114
     12 C           5.6590   -0.3705    0.0000 C.3     1  UNL1        0.0288
     13 C           5.2990    3.6502    0.0000 C.ar    1  UNL1        0.0082
     14 C           4.2990    3.6502    0.0000 C.ar    1  UNL1        0.0580
     15 C           6.5486   -0.8273    0.0000 C.3     1  UNL1        0.0097
     16 C           7.5226   -2.3054    0.0000 C.ar    1  UNL1        0.1133
     17 C           6.5978   -1.8260    0.0000 C.ar    1  UNL1        0.0705
     18 C           6.4643    2.1682    0.0000 C.ar    1  UNL1       -0.0357
     19 C           6.4651    1.1607    0.0000 C.ar    1  UNL1        0.0058
     20 C           7.5834   -3.3035    0.0000 C.ar    1  UNL1        0.0558
     21 C           3.7578    0.6429    0.0000 C.ar    1  UNL1        0.0161
     22 C           3.0320    2.2902    0.0000 C.ar    1  UNL1        0.3032
     23 C           8.5515   -3.5542    0.0000 C.ar    1  UNL1        0.0146
     24 C           9.0890   -2.7109    0.0000 C.ar    1  UNL1        0.0888
     25 C           2.9151    1.2552    0.0000 C.ar    1  UNL1        0.2453
     26 C           5.8336    4.5442    0.0000 C.ar    1  UNL1       -0.0520
     27 C           3.7643    4.5442    0.0000 C.ar    1  UNL1       -0.0371
     28 C           6.7236   -3.8916    0.0000 C.ar    1  UNL1        0.1479
     29 C           5.3198    5.4503    0.0000 C.ar    1  UNL1       -0.0611
     30 C           4.2782    5.4503    0.0000 C.ar    1  UNL1       -0.0598
     31 C           9.0179   -4.4855    0.0000 C.ar    1  UNL1       -0.0518
     32 C           5.7880   -3.4337    0.0000 C.ar    1  UNL1        0.0702
     33 C          10.1302   -2.7406    0.0000 C.ar    1  UNL1       -0.0343
     34 C          10.0582   -4.5392    0.0000 C.ar    1  UNL1       -0.0611
     35 C          10.6181   -3.6609    0.0000 C.ar    1  UNL1       -0.0597
     36 C           9.6674   -0.7040    0.0000 C.3     1  UNL1        0.1052
     37 C           5.9684   -5.4503    0.0000 C.3     1  UNL1        0.0789
     38 H           5.0438   -0.2931    0.0000 H       1  UNL1        0.0495
     39 H           5.4759   -0.9629    0.0000 H       1  UNL1        0.0495
     40 H           7.1637   -0.9047    0.0000 H       1  UNL1        0.0346
     41 H           6.7317   -0.2349    0.0000 H       1  UNL1        0.0346
     42 H           7.0059    2.4700    0.0000 H       1  UNL1        0.0639
     43 H           7.0072    0.8598    0.0000 H       1  UNL1        0.0809
     44 H           3.6954    0.0261    0.0000 H       1  UNL1        0.0679
     45 H           6.4536    4.5370    0.0000 H       1  UNL1        0.0624
     46 H           3.1444    4.5370    0.0000 H       1  UNL1        0.0638
     47 H           8.6786   -5.0044    0.0000 H       1  UNL1        0.0624
     48 H           5.6319    5.9860    0.0000 H       1  UNL1        0.0618
     49 H           3.9661    5.9860    0.0000 H       1  UNL1        0.0618
     50 H           5.2722   -3.7778    0.0000 H       1  UNL1        0.0867
     51 H          10.4574   -2.2139    0.0000 H       1  UNL1        0.0639
     52 H          10.3422   -5.0904    0.0000 H       1  UNL1        0.0618
     53 H          11.2376   -3.6857    0.0000 H       1  UNL1        0.0618
     54 H           9.8330   -1.3015    0.0000 H       1  UNL1        0.0686
     55 H          10.2649   -0.5385    0.0000 H       1  UNL1        0.0686
     56 H           9.5019   -0.1065    0.0000 H       1  UNL1        0.0686
     57 H           5.6203   -4.9372    0.0000 H       1  UNL1        0.0660
     58 H           5.4553   -5.7983    0.0000 H       1  UNL1        0.0660
     59 H           6.3164   -5.9634    0.0000 H       1  UNL1        0.0660
@<TRIPOS>BOND
     1     1     7    1
     2     1    36    1
     3     2    28    1
     4     2    37    1
     5     3    22    2
     6     4    25    2
     7     5    10   ar
     8     5    12    1
     9     5    19   ar
    10     6     9   ar
    11     6    14   ar
    12     6    22   ar
    13     7    16   ar
    14     7    24   ar
    15     8    17   ar
    16     8    32   ar
    17     9    10    1
    18     9    11   ar
    19    10    21   ar
    20    11    13   ar
    21    11    18   ar
    22    12    15    1
    23    12    38    1
    24    12    39    1
    25    13    14   ar
    26    13    26   ar
    27    14    27   ar
    28    15    17    1
    29    15    40    1
    30    15    41    1
    31    16    17   ar
    32    16    20   ar
    33    18    19   ar
    34    18    42    1
    35    19    43    1
    36    20    23   ar
    37    20    28   ar
    38    21    25   ar
    39    21    44    1
    40    22    25   ar
    41    23    24   ar
    42    23    31   ar
    43    24    33   ar
    44    26    29   ar
    45    26    45    1
    46    27    30   ar
    47    27    46    1
    48    28    32   ar
    49    29    30   ar
    50    29    48    1
    51    30    49    1
    52    31    34   ar
    53    31    47    1
    54    32    50    1
    55    33    35   ar
    56    33    51    1
    57    34    35   ar
    58    34    52    1
    59    35    53    1
    60    36    54    1
    61    36    55    1
    62    36    56    1
    63    37    57    1
    64    37    58    1
    65    37    59    1
