@<TRIPOS>MOLECULE
IMPHY016081
 32 31 0 0 0
SMALL
GASTEIGER

@<TRIPOS>ATOM
      1 O           2.5369   -0.5600    0.0000 O.3     1  UNL1       -0.3851
      2 O           9.4651    0.4400    0.0000 O.3     1  UNL1       -0.3950
      3 C           6.8671   -0.0600    0.0000 C.3     1  UNL1       -0.0384
      4 C           6.0010    0.4400    0.0000 C.3     1  UNL1       -0.0320
      5 C           7.7331    0.4400    0.0000 C.3     1  UNL1       -0.0268
      6 C           6.8671   -1.0600    0.0000 C.3     1  UNL1       -0.0621
      7 C           3.4030   -0.0600    0.0000 C.3     1  UNL1        0.0786
      8 C           5.1350   -0.0600    0.0000 C.2     1  UNL1       -0.0850
      9 C           8.5991   -0.0600    0.0000 C.3     1  UNL1        0.0445
     10 C           4.2690    0.4400    0.0000 C.2     1  UNL1       -0.0573
     11 C           2.9030    0.8060    0.0000 C.3     1  UNL1       -0.0327
     12 C           3.9030   -0.9260    0.0000 C.3     1  UNL1       -0.0327
     13 H           6.3301   -0.3700    0.0000 H       1  UNL1        0.0302
     14 H           6.3996    0.9149    0.0000 H       1  UNL1        0.0310
     15 H           5.6025    0.9149    0.0000 H       1  UNL1        0.0310
     16 H           8.1316    0.9149    0.0000 H       1  UNL1        0.0290
     17 H           7.3346    0.9149    0.0000 H       1  UNL1        0.0290
     18 H           6.2471   -1.0600    0.0000 H       1  UNL1        0.0233
     19 H           6.8671   -1.6800    0.0000 H       1  UNL1        0.0233
     20 H           7.4871   -1.0600    0.0000 H       1  UNL1        0.0233
     21 H           5.1350   -0.6800    0.0000 H       1  UNL1        0.0570
     22 H           8.2006   -0.5349    0.0000 H       1  UNL1        0.0557
     23 H           8.9976   -0.5349    0.0000 H       1  UNL1        0.0557
     24 H           4.2690    1.0600    0.0000 H       1  UNL1        0.0597
     25 H           3.4399    1.1160    0.0000 H       1  UNL1        0.0260
     26 H           2.5930    1.3430    0.0000 H       1  UNL1        0.0260
     27 H           2.3660    0.4960    0.0000 H       1  UNL1        0.0260
     28 H           3.3660   -1.2360    0.0000 H       1  UNL1        0.0260
     29 H           4.2130   -1.4630    0.0000 H       1  UNL1        0.0260
     30 H           4.4399   -0.6160    0.0000 H       1  UNL1        0.0260
     31 H           2.0000   -0.2500    0.0000 H       1  UNL1        0.2106
     32 H          10.0021    0.1300    0.0000 H       1  UNL1        0.2094
@<TRIPOS>BOND
     1     1     7    1
     2     1    31    1
     3     2     9    1
     4     2    32    1
     5     3     4    1
     6     3     5    1
     7     3     6    1
     8     3    13    1
     9     4     8    1
    10     4    14    1
    11     4    15    1
    12     5     9    1
    13     5    16    1
    14     5    17    1
    15     6    18    1
    16     6    19    1
    17     6    20    1
    18     7    10    1
    19     7    11    1
    20     7    12    1
    21     8    10    2
    22     8    21    1
    23     9    22    1
    24     9    23    1
    25    10    24    1
    26    11    25    1
    27    11    26    1
    28    11    27    1
    29    12    28    1
    30    12    29    1
    31    12    30    1
