@<TRIPOS>MOLECULE
IMPHY010787
 67 71 0 0 0
SMALL
GASTEIGER

@<TRIPOS>ATOM
      1 O           8.0107  -10.5189    0.0000 O.3     1  UNL1       -0.3264
      2 C           9.1579  -11.1800    0.0000 C.3     1  UNL1        0.2809
      3 C           9.1579  -12.5021    0.0000 C.3     1  UNL1        0.2679
      4 C           8.0107  -13.1632    0.0000 C.3     1  UNL1        0.2556
      5 C           6.8635  -12.5021    0.0000 C.3     1  UNL1        0.2391
      6 C           6.8635  -11.1800    0.0000 C.3     1  UNL1        0.1616
      7 O          10.3050  -10.5189    0.0000 O.3     1  UNL1       -0.3225
      8 C          10.3050   -8.5746    0.0000 C.3     1  UNL1        0.2051
      9 C           9.1579   -7.9135    0.0000 C.3     1  UNL1        0.2293
     10 C           9.1579   -6.5913    0.0000 C.3     1  UNL1        0.1898
     11 O          10.3050   -5.9302    0.0000 O.3     1  UNL1       -0.3238
     12 C          11.4522   -6.5913    0.0000 C.3     1  UNL1        0.2796
     13 C          11.4522   -7.9135    0.0000 C.3     1  UNL1        0.2552
     14 O          10.3050  -13.1632    0.0000 O.3     1  UNL1       -0.4430
     15 C          10.3050  -14.4854    0.0000 C.2     1  UNL1        0.3177
     16 O           9.1579  -15.1464    0.0000 O.2     1  UNL1       -0.2501
     17 O           8.0107  -14.4854    0.0000 O.3     1  UNL1       -0.4444
     18 C           6.8635  -15.1464    0.0000 C.2     1  UNL1        0.3177
     19 O           6.8635  -16.4686    0.0000 O.2     1  UNL1       -0.2501
     20 O           5.7164  -13.1632    0.0000 O.3     1  UNL1       -0.4458
     21 C           4.5692  -12.5021    0.0000 C.2     1  UNL1        0.3176
     22 O           4.5692  -11.1800    0.0000 O.2     1  UNL1       -0.2501
     23 C           5.7164  -10.5189    0.0000 C.3     1  UNL1        0.0361
     24 O           8.0107   -8.5746    0.0000 O.3     1  UNL1       -0.4439
     25 C           6.8635   -7.9135    0.0000 C.2     1  UNL1        0.3415
     26 O           6.8635   -6.5913    0.0000 O.2     1  UNL1       -0.2449
     27 C           8.0107   -5.9302    0.0000 C.3     1  UNL1        0.1781
     28 O           8.0107   -4.6081    0.0000 O.3     1  UNL1       -0.3258
     29 C           6.8635   -3.9470    0.0000 C.3     1  UNL1        0.2695
     30 O           6.8635   -2.6249    0.0000 O.3     1  UNL1       -0.3256
     31 C           5.7164   -1.9638    0.0000 C.3     1  UNL1        0.1835
     32 C           4.5692   -2.6249    0.0000 C.3     1  UNL1        0.2144
     33 C           4.5692   -3.9470    0.0000 C.3     1  UNL1        0.2198
     34 C           5.7164   -4.6081    0.0000 C.3     1  UNL1        0.2406
     35 O          12.5799   -5.9302    0.0000 O.3     1  UNL1       -0.3274
     36 C          13.7271   -6.5913    0.0000 C.3     1  UNL1        0.1496
     37 C          14.8742   -5.9302    0.0000 C.3     1  UNL1        0.0586
     38 C          16.0019   -6.5913    0.0000 C.ar    1  UNL1       -0.0163
     39 C          17.1491   -5.9302    0.0000 C.ar    1  UNL1        0.0412
     40 C          18.2963   -6.5913    0.0000 C.ar    1  UNL1        0.2339
     41 C          18.2963   -7.9135    0.0000 C.ar    1  UNL1        0.2342
     42 C          17.1491   -8.5746    0.0000 C.ar    1  UNL1        0.0451
     43 C          16.0019   -7.9135    0.0000 C.ar    1  UNL1       -0.0007
     44 O          12.5799   -8.5746    0.0000 O.3     1  UNL1       -0.4442
     45 C          12.5799   -9.8967    0.0000 C.2     1  UNL1        0.3177
     46 O          11.4522  -10.5578    0.0000 O.2     1  UNL1       -0.2501
     47 C          11.4522  -15.1464    0.0000 C.3     1  UNL1        0.1212
     48 C           5.7164  -14.4854    0.0000 C.3     1  UNL1        0.1212
     49 C           3.4415  -13.1632    0.0000 C.3     1  UNL1        0.1212
     50 C           5.7164   -8.5746    0.0000 C.2     1  UNL1        0.0819
     51 C           4.5692   -7.9135    0.0000 C.2     1  UNL1        0.0068
     52 C           3.4415   -8.5746    0.0000 C.ar    1  UNL1        0.0036
     53 C           2.2943   -7.9135    0.0000 C.ar    1  UNL1        0.0454
     54 C           1.1472   -8.5746    0.0000 C.ar    1  UNL1        0.2343
     55 C           1.1472   -9.8967    0.0000 C.ar    1  UNL1        0.2343
     56 C           2.2943  -10.5578    0.0000 C.ar    1  UNL1        0.0454
     57 C           3.4415   -9.8967    0.0000 C.ar    1  UNL1        0.0035
     58 C           5.7164   -0.6416    0.0000 C.3     1  UNL1        0.2142
     59 O           6.8635    0.0000    0.0000 O.3     1  UNL1       -0.2176
     60 O           3.4415   -1.9638    0.0000 O.3     1  UNL1       -0.2176
     61 O           3.4415   -4.6081    0.0000 O.3     1  UNL1       -0.2174
     62 O           5.7164   -5.9302    0.0000 O.3     1  UNL1       -0.2149
     63 O          19.4434   -5.9302    0.0000 O.3     1  UNL1       -0.2832
     64 O          19.4434   -8.5746    0.0000 O.3     1  UNL1       -0.2831
     65 C          13.7271  -10.5578    0.0000 C.3     1  UNL1        0.1212
     66 O           0.0000   -7.9135    0.0000 O.3     1  UNL1       -0.2831
     67 O           0.0000  -10.5578    0.0000 O.3     1  UNL1       -0.2831
@<TRIPOS>BOND
     1     1     2    1
     2     1     6    1
     3     2     7    1
     4     2     3    1
     5     3     4    1
     6     3    14    1
     7     4     5    1
     8     4    17    1
     9     5     6    1
    10     5    20    1
    11     6    23    1
    12     8     7    1
    13     8     9    1
    14     8    13    1
    15     9    24    1
    16     9    10    1
    17    10    11    1
    18    10    27    1
    19    11    12    1
    20    12    13    1
    21    12    35    1
    22    13    44    1
    23    14    15    1
    24    15    16    2
    25    15    47    1
    26    17    18    1
    27    18    19    2
    28    18    48    1
    29    20    21    1
    30    21    22    2
    31    21    49    1
    32    24    25    1
    33    25    50    1
    34    25    26    2
    35    27    28    1
    36    29    28    1
    37    29    34    1
    38    29    30    1
    39    30    31    1
    40    31    32    1
    41    31    58    1
    42    32    33    1
    43    32    60    1
    44    33    34    1
    45    33    61    1
    46    34    62    1
    47    35    36    1
    48    36    37    1
    49    37    38    1
    50    38    39   ar
    51    38    43   ar
    52    39    40   ar
    53    40    41   ar
    54    40    63    1
    55    41    42   ar
    56    41    64    1
    57    42    43   ar
    58    44    45    1
    59    45    46    2
    60    45    65    1
    61    50    51    2
    62    51    52    1
    63    52    57   ar
    64    52    53   ar
    65    53    54   ar
    66    54    55   ar
    67    54    66    1
    68    55    56   ar
    69    55    67    1
    70    56    57   ar
    71    58    59    1
