@<TRIPOS>MOLECULE
IMPHY005280
 58 60 0 0 0
SMALL
GASTEIGER

@<TRIPOS>ATOM
      1 O           9.8222   -1.1897    0.0000 O.3     1  UNL1       -0.4811
      2 O           8.0622    1.8450    0.0000 O.3     1  UNL1       -0.5052
      3 O           6.3301   -1.1550    0.0000 O.3     1  UNL1       -0.4942
      4 O           6.3301    1.8450    0.0000 O.2     1  UNL1       -0.2870
      5 C          10.7282   -0.6758    0.0000 C.3     1  UNL1        0.1266
      6 C          11.7282   -0.6797    0.0000 C.3     1  UNL1       -0.0060
      7 C          10.7282    0.3658    0.0000 C.2     1  UNL1       -0.0405
      8 C          11.2249   -1.5438    0.0000 C.3     1  UNL1       -0.0212
      9 C          12.2315    0.1844    0.0000 C.3     1  UNL1       -0.0306
     10 C           8.9282   -0.6550    0.0000 C.ar    1  UNL1        0.1359
     11 C           8.9282    0.3450    0.0000 C.ar    1  UNL1        0.0588
     12 C           9.8222    0.8797    0.0000 C.2     1  UNL1       -0.0478
     13 C           8.0622    0.8450    0.0000 C.ar    1  UNL1        0.1418
     14 C           8.0622   -1.1550    0.0000 C.ar    1  UNL1        0.0233
     15 C          13.2315    0.1806    0.0000 C.2     1  UNL1       -0.0851
     16 C           7.1962    0.3450    0.0000 C.ar    1  UNL1        0.1053
     17 C           7.1962   -0.6550    0.0000 C.ar    1  UNL1        0.1379
     18 C          13.7349    1.0447    0.0000 C.2     1  UNL1       -0.0796
     19 C           6.3301    0.8450    0.0000 C.2     1  UNL1        0.1931
     20 C          14.7349    1.0408    0.0000 C.3     1  UNL1       -0.0440
     21 C          13.2382    1.9126    0.0000 C.3     1  UNL1       -0.0440
     22 C           5.4641    0.3450    0.0000 C.2     1  UNL1       -0.0135
     23 C           6.3301   -2.1550    0.0000 C.3     1  UNL1        0.0788
     24 C           4.5981    0.8450    0.0000 C.2     1  UNL1       -0.0510
     25 C           3.7320    0.3450    0.0000 C.ar    1  UNL1       -0.0249
     26 C           2.8660    0.8450    0.0000 C.ar    1  UNL1       -0.0546
     27 C           3.7320   -0.6550    0.0000 C.ar    1  UNL1       -0.0546
     28 C           2.0000    0.3450    0.0000 C.ar    1  UNL1       -0.0612
     29 C           2.8660   -1.1550    0.0000 C.ar    1  UNL1       -0.0612
     30 C           2.0000   -0.6550    0.0000 C.ar    1  UNL1       -0.0617
     31 H          11.6182   -1.2898    0.0000 H       1  UNL1        0.0310
     32 H          12.3100   -0.8940    0.0000 H       1  UNL1        0.0310
     33 H          11.2639    0.6779    0.0000 H       1  UNL1        0.0611
     34 H          10.6867   -1.8517    0.0000 H       1  UNL1        0.0271
     35 H          11.5328   -2.0819    0.0000 H       1  UNL1        0.0271
     36 H          11.7630   -1.2358    0.0000 H       1  UNL1        0.0271
     37 H          12.3416    0.7946    0.0000 H       1  UNL1        0.0309
     38 H          11.6498    0.3987    0.0000 H       1  UNL1        0.0309
     39 H           9.8150    1.4996    0.0000 H       1  UNL1        0.0624
     40 H           8.0622   -1.7750    0.0000 H       1  UNL1        0.0691
     41 H          13.5395   -0.3576    0.0000 H       1  UNL1        0.0571
     42 H           8.5991    2.1550    0.0000 H       1  UNL1        0.2922
     43 H          14.7325    0.4208    0.0000 H       1  UNL1        0.0274
     44 H          13.7763    2.2205    0.0000 H       1  UNL1        0.0274
     45 H          12.9303    2.4507    0.0000 H       1  UNL1        0.0274
     46 H          12.7001    1.6047    0.0000 H       1  UNL1        0.0274
     47 H          15.3549    1.0384    0.0000 H       1  UNL1        0.0274
     48 H          14.7372    1.6608    0.0000 H       1  UNL1        0.0274
     49 H           5.4641   -0.2750    0.0000 H       1  UNL1        0.0656
     50 H           5.7101   -2.1550    0.0000 H       1  UNL1        0.0660
     51 H           6.3301   -2.7750    0.0000 H       1  UNL1        0.0660
     52 H           6.9501   -2.1550    0.0000 H       1  UNL1        0.0660
     53 H           4.5981    1.4650    0.0000 H       1  UNL1        0.0625
     54 H           2.8660    1.4650    0.0000 H       1  UNL1        0.0623
     55 H           4.2690   -0.9650    0.0000 H       1  UNL1        0.0623
     56 H           1.4631    0.6550    0.0000 H       1  UNL1        0.0618
     57 H           2.8660   -1.7750    0.0000 H       1  UNL1        0.0618
     58 H           1.4631   -0.9650    0.0000 H       1  UNL1        0.0618
@<TRIPOS>BOND
     1     1     5    1
     2     1    10    1
     3     2    13    1
     4     2    42    1
     5     3    17    1
     6     3    23    1
     7     4    19    2
     8     5     6    1
     9     5     7    1
    10     5     8    1
    11     6     9    1
    12     6    31    1
    13     6    32    1
    14     7    12    2
    15     7    33    1
    16     8    34    1
    17     8    35    1
    18     8    36    1
    19     9    15    1
    20     9    37    1
    21     9    38    1
    22    10    11   ar
    23    10    14   ar
    24    11    12    1
    25    11    13   ar
    26    12    39    1
    27    13    16   ar
    28    14    17   ar
    29    14    40    1
    30    15    18    2
    31    15    41    1
    32    16    17   ar
    33    16    19    1
    34    18    20    1
    35    18    21    1
    36    19    22    1
    37    20    43    1
    38    20    47    1
    39    20    48    1
    40    21    44    1
    41    21    45    1
    42    21    46    1
    43    22    24    2
    44    22    49    1
    45    23    50    1
    46    23    51    1
    47    23    52    1
    48    24    25    1
    49    24    53    1
    50    25    26   ar
    51    25    27   ar
    52    26    28   ar
    53    26    54    1
    54    27    29   ar
    55    27    55    1
    56    28    30   ar
    57    28    56    1
    58    29    30   ar
    59    29    57    1
    60    30    58    1
