@<TRIPOS>MOLECULE
IMPHY001178
 47 51 0 0 0
SMALL
GASTEIGER

@<TRIPOS>ATOM
      1 O           4.9624    0.3935    0.0000 O.3     1  UNL1       -0.4570
      2 O           2.5405    0.9501    0.0000 O.2     1  UNL1       -0.2502
      3 O           6.0392    1.6219    0.0000 O.3     1  UNL1       -0.4804
      4 O           4.3132    1.4764    0.0000 O.2     1  UNL1       -0.2507
      5 C           6.0304   -0.4947    0.0000 C.3     1  UNL1       -0.0053
      6 C           4.8165   -1.3404    0.0000 C.3     1  UNL1        0.1214
      7 C           5.7285   -1.3619    0.0000 C.3     1  UNL1        0.0061
      8 C           4.5534   -0.4664    0.0000 C.3     1  UNL1        0.0281
      9 C           5.3022    0.0545    0.0000 C.3     1  UNL1        0.0700
     10 C           3.6362   -0.2503    0.0000 C.3     1  UNL1        0.0722
     11 C           6.7264   -1.3272    0.0000 C.3     1  UNL1       -0.0394
     12 C           6.8973   -0.1901    0.0000 C.3     1  UNL1       -0.0249
     13 C           6.2188   -2.1385    0.0000 C.3     1  UNL1       -0.0455
     14 C           7.7793   -1.5897    0.0000 C.3     1  UNL1       -0.0196
     15 C           4.1787   -2.0549    0.0000 C.3     1  UNL1       -0.0122
     16 C           7.1311   -2.2397    0.0000 C.3     1  UNL1       -0.0461
     17 C           2.9910   -0.9365    0.0000 C.3     1  UNL1       -0.0370
     18 C           7.6749   -0.6771    0.0000 C.2     1  UNL1       -0.0730
     19 C           3.2625   -1.8392    0.0000 C.3     1  UNL1       -0.0484
     20 C           3.3713    0.3935    0.0000 C.2     1  UNL1        0.3140
     21 C           5.2182    1.0509    0.0000 C.2     1  UNL1        0.3088
     22 C           2.6527   -0.0692    0.0000 C.3     1  UNL1       -0.0490
     23 C           8.4785   -0.0820    0.0000 C.2     1  UNL1       -0.0992
     24 H           5.3093   -2.1014    0.0000 H       1  UNL1        0.0345
     25 H           4.1184    0.2639    0.0000 H       1  UNL1        0.0358
     26 H           5.8450    0.3541    0.0000 H       1  UNL1        0.0423
     27 H           6.7693   -1.9457    0.0000 H       1  UNL1        0.0277
     28 H           6.1513   -1.5587    0.0000 H       1  UNL1        0.0277
     29 H           6.5667    0.3344    0.0000 H       1  UNL1        0.0316
     30 H           7.3351    0.2489    0.0000 H       1  UNL1        0.0316
     31 H           6.2893   -2.7544    0.0000 H       1  UNL1        0.0270
     32 H           5.6339   -2.3444    0.0000 H       1  UNL1        0.0270
     33 H           8.5820   -1.8692    0.0000 H       1  UNL1        0.0346
     34 H           4.7030   -2.3858    0.0000 H       1  UNL1        0.0304
     35 H           3.9389   -2.6267    0.0000 H       1  UNL1        0.0304
     36 H           7.6565   -2.5688    0.0000 H       1  UNL1        0.0271
     37 H           6.9272   -2.8253    0.0000 H       1  UNL1        0.0271
     38 H           2.4374   -1.2155    0.0000 H       1  UNL1        0.0276
     39 H           2.6200   -0.4398    0.0000 H       1  UNL1        0.0276
     40 H           3.2273   -2.4582    0.0000 H       1  UNL1        0.0267
     41 H           2.6468   -1.9120    0.0000 H       1  UNL1        0.0267
     42 H           2.5404   -0.6789    0.0000 H       1  UNL1        0.0240
     43 H           2.0430    0.0432    0.0000 H       1  UNL1        0.0240
     44 H           2.7650    0.5406    0.0000 H       1  UNL1        0.0240
     45 H           8.4081    0.5340    0.0000 H       1  UNL1        0.0534
     46 H           9.0472   -0.3290    0.0000 H       1  UNL1        0.0534
     47 H           5.9871    2.2397    0.0000 H       1  UNL1        0.2951
@<TRIPOS>BOND
     1     6     1    1
     2     1    20    1
     3     2    20    2
     4     3    21    1
     5     3    47    1
     6     4    21    2
     7     5     7    1
     8     5     9    1
     9     5    11    1
    10     5    12    1
    11     6     7    1
    12     6     8    1
    13     6    15    1
    14     7    13    1
    15     7    24    1
    16     8     9    1
    17     8    10    1
    18     8    25    1
    19     9    21    1
    20     9    26    1
    21    10    17    1
    22    10    20    1
    23    10    22    1
    24    11    14    1
    25    11    27    1
    26    11    28    1
    27    12    18    1
    28    12    29    1
    29    12    30    1
    30    13    16    1
    31    13    31    1
    32    13    32    1
    33    14    16    1
    34    14    18    1
    35    14    33    1
    36    15    19    1
    37    15    34    1
    38    15    35    1
    39    16    36    1
    40    16    37    1
    41    17    19    1
    42    17    38    1
    43    17    39    1
    44    18    23    2
    45    19    40    1
    46    19    41    1
    47    22    42    1
    48    22    43    1
    49    22    44    1
    50    23    45    1
    51    23    46    1
