@<TRIPOS>MOLECULE
IMPHY010759
 85 97 0 0 0
SMALL
GASTEIGER

@<TRIPOS>ATOM
      1 C           5.3667   -0.8333    0.0000 C.3     1  UNL1        0.3183
      2 C           5.8875   -2.8792    0.0000 C.ar    1  UNL1        0.0481
      3 C           3.9250   -1.6667    0.0000 C.ar    1  UNL1        0.0530
      4 C           6.6000   -4.1167    0.0000 C.ar    1  UNL1        0.0571
      5 C           5.8875   -3.7000    0.0000 C.ar    1  UNL1        0.1373
      6 C           7.9333   -5.5125    0.0000 C.ar    1  UNL1        0.0571
      7 C           2.5000   -1.6625    0.0000 C.ar    1  UNL1        0.0620
      8 C           8.6458   -5.1000    0.0000 C.ar    1  UNL1        0.1375
      9 C           4.6417   -2.0792    0.0000 C.3     1  UNL1        0.0664
     10 C           6.6000   -4.9417    0.0000 C.3     1  UNL1        0.0912
     11 O           4.6458   -0.4125    0.0000 O.3     1  UNL1       -0.4434
     12 O           6.6083   -1.6458    0.0000 O.3     1  UNL1       -0.4434
     13 C           1.7833   -2.0750    0.0000 C.3     1  UNL1        0.0914
     14 C           5.3667   -1.6667    0.0000 C.3     1  UNL1        0.2363
     15 C           3.2125   -2.0750    0.0000 C.ar    1  UNL1        0.1941
     16 C           9.3583   -5.5125    0.0000 C.ar    1  UNL1        0.0532
     17 C           6.6083   -2.4708    0.0000 C.ar    1  UNL1        0.1447
     18 C           3.9292   -0.8333    0.0000 C.ar    1  UNL1        0.1448
     19 O           5.1708   -4.1125    0.0000 O.3     1  UNL1       -0.4725
     20 C           1.7875   -2.8958    0.0000 C.ar    1  UNL1        0.0574
     21 O           8.6375   -4.2792    0.0000 O.3     1  UNL1       -0.4725
     22 O           0.3583   -2.9000    0.0000 O.3     1  UNL1       -0.4722
     23 C           1.0750   -3.3083    0.0000 C.ar    1  UNL1        0.1416
     24 C           5.8792   -5.3500    0.0000 C.3     1  UNL1        0.2042
     25 C           1.0750   -1.6625    0.0000 C.3     1  UNL1        0.2042
     26 C           5.1667   -4.9375    0.0000 C.3     1  UNL1        0.2189
     27 C           0.3583   -2.0750    0.0000 C.3     1  UNL1        0.2190
     28 C           7.3167   -3.7000    0.0000 C.ar    1  UNL1        0.1980
     29 C           2.5000   -0.8375    0.0000 C.ar    1  UNL1        0.1982
     30 C           7.9333   -6.3417    0.0000 C.ar    1  UNL1        0.1982
     31 C           6.0833   -0.4250    0.0000 C.ar    1  UNL1        0.0592
     32 C           2.5083   -3.3083    0.0000 C.ar    1  UNL1        0.1982
     33 C           9.3542   -3.8667    0.0000 C.3     1  UNL1        0.2186
     34 C           7.3167   -2.8792    0.0000 C.ar    1  UNL1        0.0786
     35 C           3.2125   -0.4208    0.0000 C.ar    1  UNL1        0.0786
     36 C           9.3625   -6.3417    0.0000 C.ar    1  UNL1        0.1979
     37 C          10.0667   -5.1000    0.0000 C.3     1  UNL1        0.0697
     38 C           8.6458   -6.7542    0.0000 C.ar    1  UNL1        0.0836
     39 C          -0.3542   -1.6667    0.0000 C.ar    1  UNL1        0.0231
     40 C           4.4500   -5.3458    0.0000 C.ar    1  UNL1        0.0231
     41 C           9.3500   -3.0458    0.0000 C.ar    1  UNL1        0.0231
     42 C          10.0667   -4.2750    0.0000 C.3     1  UNL1        0.2004
     43 C           1.0750   -4.1292    0.0000 C.ar    1  UNL1        0.0788
     44 C           2.5042   -4.1333    0.0000 C.ar    1  UNL1        0.0839
     45 C           6.7958   -0.8417    0.0000 C.ar    1  UNL1        0.0482
     46 C           3.7417   -4.9292    0.0000 C.ar    1  UNL1        0.0447
     47 C          -0.3542   -0.8417    0.0000 C.ar    1  UNL1        0.0447
     48 C          10.0667   -2.6333    0.0000 C.ar    1  UNL1        0.0447
     49 C           7.5083   -0.4333    0.0000 C.ar    1  UNL1        0.2342
     50 C          -1.0667   -0.4292    0.0000 C.ar    1  UNL1        0.2341
     51 C           3.0250   -5.3417    0.0000 C.ar    1  UNL1        0.2341
     52 C          10.0625   -1.8083    0.0000 C.ar    1  UNL1        0.2341
     53 C           1.7917   -4.5458    0.0000 C.ar    1  UNL1        0.2019
     54 C           7.5125    0.3958    0.0000 C.ar    1  UNL1        0.2342
     55 C           3.0208   -6.1667    0.0000 C.ar    1  UNL1        0.2342
     56 C          -1.7833   -0.8417    0.0000 C.ar    1  UNL1        0.2342
     57 C           9.3500   -1.3958    0.0000 C.ar    1  UNL1        0.2342
     58 C           6.0833    0.3958    0.0000 C.ar    1  UNL1        0.0063
     59 C          -1.0625   -2.0792    0.0000 C.ar    1  UNL1        0.0028
     60 C           4.4542   -6.1708    0.0000 C.ar    1  UNL1        0.0028
     61 C           8.6375   -2.6375    0.0000 C.ar    1  UNL1        0.0028
     62 C           6.7958    0.8083    0.0000 C.ar    1  UNL1        0.0453
     63 C           3.7417   -6.5792    0.0000 C.ar    1  UNL1        0.0452
     64 C           8.6333   -1.8125    0.0000 C.ar    1  UNL1        0.0452
     65 C          -1.7792   -1.6708    0.0000 C.ar    1  UNL1        0.0452
     66 O           3.2125   -2.9000    0.0000 O.3     1  UNL1       -0.2870
     67 O           6.0792   -2.0833    0.0000 O.3     1  UNL1       -0.2145
     68 O           5.8750   -6.1750    0.0000 O.3     1  UNL1       -0.2182
     69 O           1.0708   -0.8375    0.0000 O.3     1  UNL1       -0.2182
     70 O           8.0333   -4.1125    0.0000 O.3     1  UNL1       -0.2867
     71 O           1.7875   -0.4250    0.0000 O.3     1  UNL1       -0.2867
     72 O           7.2167   -6.7542    0.0000 O.3     1  UNL1       -0.2867
     73 O           3.0917   -3.8917    0.0000 O.3     1  UNL1       -0.2867
     74 O          10.0792   -6.7542    0.0000 O.3     1  UNL1       -0.2867
     75 O          10.7833   -3.8625    0.0000 O.3     1  UNL1       -0.2185
     76 O           2.3125   -4.9250    0.0000 O.3     1  UNL1       -0.2832
     77 O          10.7792   -1.3917    0.0000 O.3     1  UNL1       -0.2832
     78 O          -1.0667    0.3958    0.0000 O.3     1  UNL1       -0.2832
     79 O           8.2250   -0.8458    0.0000 O.3     1  UNL1       -0.2832
     80 O           8.2292    0.8042    0.0000 O.3     1  UNL1       -0.2831
     81 O           9.3458   -0.5708    0.0000 O.3     1  UNL1       -0.2831
     82 O           1.7875   -5.3708    0.0000 O.3     1  UNL1       -0.2864
     83 O           2.3083   -6.5792    0.0000 O.3     1  UNL1       -0.2831
     84 O          -2.5000   -0.4292    0.0000 O.3     1  UNL1       -0.2831
     85 H           4.0542   -2.6625    0.0000 H       1  UNL1        0.0435
@<TRIPOS>BOND
     1     1    31    1
     2     2     9    1
     3     2    17   ar
     4     3    18   ar
     5     4     5   ar
     6     5     2   ar
     7     7    15   ar
     8     7    29   ar
     9     8     6   ar
    10     9    14    1
    11     9    85    1
    12     9     3    1
    13    10     6    1
    14    10     4    1
    15    11     1    1
    16    12     1    1
    17    13     7    1
    18    14     1    1
    19    14    67    1
    20    15     3   ar
    21    16     8   ar
    22    17    12    1
    23    18    11    1
    24    19     5    1
    25    20    13    1
    26    21     8    1
    27    22    27    1
    28    22    23    1
    29    23    20   ar
    30    24    26    1
    31    24    68    1
    32    24    10    1
    33    25    13    1
    34    25    69    1
    35    26    19    1
    36    26    40    1
    37    27    25    1
    38    27    39    1
    39    28    34   ar
    40    28     4   ar
    41    29    35   ar
    42    30     6   ar
    43    32    20   ar
    44    33    21    1
    45    33    41    1
    46    34    17   ar
    47    35    18   ar
    48    36    16   ar
    49    36    38   ar
    50    37    16    1
    51    38    30   ar
    52    42    33    1
    53    42    75    1
    54    42    37    1
    55    43    23   ar
    56    44    32   ar
    57    45    31   ar
    58    46    40   ar
    59    47    39   ar
    60    48    41   ar
    61    49    45   ar
    62    50    47   ar
    63    51    46   ar
    64    52    48   ar
    65    53    44   ar
    66    53    43   ar
    67    54    62   ar
    68    54    49   ar
    69    55    63   ar
    70    55    51   ar
    71    56    65   ar
    72    56    50   ar
    73    57    64   ar
    74    57    52   ar
    75    58    31   ar
    76    59    39   ar
    77    60    40   ar
    78    61    41   ar
    79    62    58   ar
    80    63    60   ar
    81    64    61   ar
    82    65    59   ar
    83    66    15    1
    84    70    28    1
    85    71    29    1
    86    72    30    1
    87    73    32    1
    88    74    36    1
    89    76    51    1
    90    77    52    1
    91    78    50    1
    92    79    49    1
    93    80    54    1
    94    81    57    1
    95    82    53    1
    96    83    55    1
    97    84    56    1
