@<TRIPOS>MOLECULE
IMPHY003295
 19 20 0 0 0
SMALL
GASTEIGER

@<TRIPOS>ATOM
      1 O           4.6144   -1.8592    0.0000 O.3     1  UNL1       -0.5060
      2 O           2.8660   -1.8246    0.0000 O.2     1  UNL1       -0.2871
      3 O           2.8660    2.1754    0.0000 O.2     1  UNL1       -0.2873
      4 C           3.7320   -0.3246    0.0000 C.ar    1  UNL1        0.0738
      5 C           3.7320    0.6754    0.0000 C.ar    1  UNL1        0.0360
      6 C           4.6260   -0.8593    0.0000 C.ar    1  UNL1        0.1283
      7 C           2.8660   -0.8246    0.0000 C.2     1  UNL1        0.1904
      8 C           4.6260    1.2100    0.0000 C.ar    1  UNL1       -0.0500
      9 C           2.8660    1.1754    0.0000 C.2     1  UNL1        0.1870
     10 C           5.5321   -0.3454    0.0000 C.ar    1  UNL1       -0.0194
     11 C           5.5321    0.6962    0.0000 C.ar    1  UNL1       -0.0576
     12 C           2.0000   -0.3246    0.0000 C.2     1  UNL1       -0.0106
     13 C           2.0000    0.6754    0.0000 C.2     1  UNL1       -0.0107
     14 H           4.6188    1.8300    0.0000 H       1  UNL1        0.0625
     15 H           6.0678   -0.6575    0.0000 H       1  UNL1        0.0654
     16 H           6.0678    1.0083    0.0000 H       1  UNL1        0.0619
     17 H           1.4631   -0.6346    0.0000 H       1  UNL1        0.0657
     18 H           1.4631    0.9854    0.0000 H       1  UNL1        0.0657
     19 H           5.1477   -2.1754    0.0000 H       1  UNL1        0.2922
@<TRIPOS>BOND
     1     1     6    1
     2     1    19    1
     3     2     7    2
     4     3     9    2
     5     4     5   ar
     6     4     6   ar
     7     4     7    1
     8     5     8   ar
     9     5     9    1
    10     6    10   ar
    11     7    12    1
    12     8    11   ar
    13     8    14    1
    14     9    13    1
    15    10    11   ar
    16    10    15    1
    17    11    16    1
    18    12    13    2
    19    12    17    1
    20    13    18    1
