@<TRIPOS>MOLECULE
IMPHY015205
 39 38 0 0 0
SMALL
GASTEIGER

@<TRIPOS>ATOM
      1 C           8.0622    0.2500    0.0000 C.3     1  UNL1       -0.0531
      2 C           7.1962   -0.2500    0.0000 C.3     1  UNL1       -0.0531
      3 C           8.9282   -0.2500    0.0000 C.3     1  UNL1       -0.0531
      4 C           6.3301    0.2500    0.0000 C.3     1  UNL1       -0.0530
      5 C           9.7942    0.2500    0.0000 C.3     1  UNL1       -0.0531
      6 C           5.4641   -0.2500    0.0000 C.3     1  UNL1       -0.0528
      7 C          10.6603   -0.2500    0.0000 C.3     1  UNL1       -0.0533
      8 C           4.5981    0.2500    0.0000 C.3     1  UNL1       -0.0496
      9 C          11.5263    0.2500    0.0000 C.3     1  UNL1       -0.0559
     10 C           3.7320   -0.2500    0.0000 C.3     1  UNL1       -0.0350
     11 C          12.3923   -0.2500    0.0000 C.3     1  UNL1       -0.0653
     12 C           2.8660    0.2500    0.0000 C.2     1  UNL1       -0.0911
     13 C           2.0000   -0.2500    0.0000 C.2     1  UNL1       -0.1026
     14 H           8.4607    0.7249    0.0000 H       1  UNL1        0.0265
     15 H           7.6636    0.7249    0.0000 H       1  UNL1        0.0265
     16 H           6.7976   -0.7249    0.0000 H       1  UNL1        0.0265
     17 H           7.5947   -0.7249    0.0000 H       1  UNL1        0.0265
     18 H           8.5297   -0.7249    0.0000 H       1  UNL1        0.0265
     19 H           9.3267   -0.7249    0.0000 H       1  UNL1        0.0265
     20 H           6.7287    0.7249    0.0000 H       1  UNL1        0.0265
     21 H           5.9316    0.7249    0.0000 H       1  UNL1        0.0265
     22 H          10.1928    0.7249    0.0000 H       1  UNL1        0.0265
     23 H           9.3957    0.7249    0.0000 H       1  UNL1        0.0265
     24 H           5.0656   -0.7249    0.0000 H       1  UNL1        0.0265
     25 H           5.8626   -0.7249    0.0000 H       1  UNL1        0.0265
     26 H          10.2617   -0.7249    0.0000 H       1  UNL1        0.0265
     27 H          11.0588   -0.7249    0.0000 H       1  UNL1        0.0265
     28 H           4.9966    0.7249    0.0000 H       1  UNL1        0.0268
     29 H           4.1996    0.7249    0.0000 H       1  UNL1        0.0268
     30 H          11.9248    0.7249    0.0000 H       1  UNL1        0.0263
     31 H          11.1278    0.7249    0.0000 H       1  UNL1        0.0263
     32 H           3.3335   -0.7249    0.0000 H       1  UNL1        0.0307
     33 H           4.1306   -0.7249    0.0000 H       1  UNL1        0.0307
     34 H          12.0823   -0.7869    0.0000 H       1  UNL1        0.0230
     35 H          12.9292   -0.5600    0.0000 H       1  UNL1        0.0230
     36 H          12.7023    0.2869    0.0000 H       1  UNL1        0.0230
     37 H           2.8660    0.8700    0.0000 H       1  UNL1        0.0566
     38 H           1.4631    0.0600    0.0000 H       1  UNL1        0.0532
     39 H           2.0000   -0.8700    0.0000 H       1  UNL1        0.0532
@<TRIPOS>BOND
     1     1     2    1
     2     1     3    1
     3     1    14    1
     4     1    15    1
     5     2     4    1
     6     2    16    1
     7     2    17    1
     8     3     5    1
     9     3    18    1
    10     3    19    1
    11     4     6    1
    12     4    20    1
    13     4    21    1
    14     5     7    1
    15     5    22    1
    16     5    23    1
    17     6     8    1
    18     6    24    1
    19     6    25    1
    20     7     9    1
    21     7    26    1
    22     7    27    1
    23     8    10    1
    24     8    28    1
    25     8    29    1
    26     9    11    1
    27     9    30    1
    28     9    31    1
    29    10    12    1
    30    10    32    1
    31    10    33    1
    32    11    34    1
    33    11    35    1
    34    11    36    1
    35    12    13    2
    36    12    37    1
    37    13    38    1
    38    13    39    1
