@<TRIPOS>MOLECULE
IMPHY013871
 15 17 0 0 0
SMALL
GASTEIGER

@<TRIPOS>ATOM
      1 C           3.5186   -0.8777    0.0000 C.3     1  UNL1       -0.0275
      2 C           3.0186   -0.0117    0.0000 C.3     1  UNL1       -0.0275
      3 C           2.5182   -0.8780    0.0000 C.3     1  UNL1       -0.0303
      4 C           4.0186   -0.0117    0.0000 C.3     1  UNL1       -0.0162
      5 C           2.0000   -0.0039    0.0000 C.3     1  UNL1       -0.0314
      6 C           3.5208    0.8741    0.0000 C.2     1  UNL1       -0.0843
      7 C           2.5047    0.8780    0.0000 C.2     1  UNL1       -0.0874
      8 H           3.8287   -1.4146    0.0000 H       1  UNL1        0.0312
      9 H           2.7087    0.5253    0.0000 H       1  UNL1        0.0312
     10 H           2.2114   -1.4168    0.0000 H       1  UNL1        0.0310
     11 H           4.6386   -0.0153    0.0000 H       1  UNL1        0.0349
     12 H           1.5225    0.3915    0.0000 H       1  UNL1        0.0310
     13 H           1.5287   -0.4067    0.0000 H       1  UNL1        0.0310
     14 H           3.8349    1.4086    0.0000 H       1  UNL1        0.0572
     15 H           2.1947    1.4149    0.0000 H       1  UNL1        0.0569
@<TRIPOS>BOND
     1     1     2    1
     2     1     3    1
     3     1     4    1
     4     1     8    1
     5     2     3    1
     6     2     4    1
     7     2     9    1
     8     3     5    1
     9     3    10    1
    10     4     6    1
    11     4    11    1
    12     5     7    1
    13     5    12    1
    14     5    13    1
    15     6     7    2
    16     6    14    1
    17     7    15    1
