@<TRIPOS>MOLECULE
IMPHY011466
 78 82 0 0 0
SMALL
GASTEIGER

@<TRIPOS>ATOM
      1 O           4.2690   -1.7857    0.0000 O.3     1  UNL1       -0.3402
      2 O           6.0010    0.2143    0.0000 O.3     1  UNL1       -0.3431
      3 O           7.7331    0.2143    0.0000 O.3     1  UNL1       -0.3385
      4 O           5.1350   -3.2857    0.0000 O.3     1  UNL1       -0.3405
      5 O           6.0010   -2.7857    0.0000 O.3     1  UNL1       -0.3864
      6 O           7.7331   -1.7857    0.0000 O.3     1  UNL1       -0.3841
      7 O           8.5991    2.7143    0.0000 O.3     1  UNL1       -0.4809
      8 O           2.5369   -2.7857    0.0000 O.3     1  UNL1       -0.3841
      9 O           2.5369   -4.7857    0.0000 O.3     1  UNL1       -0.3864
     10 O           4.2690   -5.7857    0.0000 O.3     1  UNL1       -0.3865
     11 O           6.0010    1.2143    0.0000 O.3     1  UNL1       -0.3842
     12 O           6.0010   -5.7857    0.0000 O.3     1  UNL1       -0.3924
     13 O           5.0969    2.7112    0.0000 O.3     1  UNL1       -0.5062
     14 O           6.8550    5.7836    0.0000 O.3     1  UNL1       -0.5065
     15 O          10.3312   -1.2857    0.0000 O.3     1  UNL1       -0.5032
     16 O          12.0632    1.7143    0.0000 O.3     1  UNL1       -0.5032
     17 O          12.0632   -0.2857    0.0000 O.3     1  UNL1       -0.5009
     18 C           5.1350   -1.2857    0.0000 C.3     1  UNL1        0.1160
     19 C           6.0010   -1.7857    0.0000 C.3     1  UNL1        0.1143
     20 C           5.1350   -0.2857    0.0000 C.3     1  UNL1        0.0877
     21 C           6.8671   -1.2857    0.0000 C.3     1  UNL1        0.1341
     22 C           6.8671   -0.2857    0.0000 C.3     1  UNL1        0.1884
     23 C           4.2690   -2.7857    0.0000 C.3     1  UNL1        0.1884
     24 C           3.4030   -3.2857    0.0000 C.3     1  UNL1        0.1341
     25 C           3.4030   -4.2857    0.0000 C.3     1  UNL1        0.1141
     26 C           7.7331    1.2143    0.0000 C.3     1  UNL1        0.1327
     27 C           4.2690   -4.7857    0.0000 C.3     1  UNL1        0.1119
     28 C           5.1350   -4.2857    0.0000 C.3     1  UNL1        0.1130
     29 C           8.5991    1.7143    0.0000 C.3     1  UNL1        0.1542
     30 C           6.8671    1.7143    0.0000 C.3     1  UNL1        0.1170
     31 C           4.2690    0.2143    0.0000 C.3     1  UNL1       -0.0361
     32 C           6.8671    2.7143    0.0000 C.ar    1  UNL1        0.0667
     33 C           6.0010   -4.7857    0.0000 C.3     1  UNL1        0.0730
     34 C           9.4651    1.2143    0.0000 C.ar    1  UNL1        0.0024
     35 C           7.7331    3.2143    0.0000 C.ar    1  UNL1        0.1342
     36 C           5.9571    3.2212    0.0000 C.ar    1  UNL1        0.1295
     37 C           7.7492    4.2558    0.0000 C.ar    1  UNL1        0.0222
     38 C          10.3312    1.7143    0.0000 C.ar    1  UNL1       -0.0095
     39 C           9.4651    0.2143    0.0000 C.ar    1  UNL1       -0.0095
     40 C           5.9490    4.2628    0.0000 C.ar    1  UNL1        0.0219
     41 C           6.8511    4.7836    0.0000 C.ar    1  UNL1        0.1238
     42 C          10.3312   -0.2857    0.0000 C.ar    1  UNL1        0.1623
     43 C          11.1972    1.2143    0.0000 C.ar    1  UNL1        0.1623
     44 C          11.1972    0.2143    0.0000 C.ar    1  UNL1        0.2006
     45 H           5.1350   -1.9057    0.0000 H       1  UNL1        0.0650
     46 H           6.5380   -2.0957    0.0000 H       1  UNL1        0.0648
     47 H           5.1350    0.3343    0.0000 H       1  UNL1        0.0621
     48 H           7.4040   -0.9757    0.0000 H       1  UNL1        0.0671
     49 H           6.8671    0.3343    0.0000 H       1  UNL1        0.0938
     50 H           3.7320   -2.4757    0.0000 H       1  UNL1        0.0938
     51 H           3.9399   -3.5957    0.0000 H       1  UNL1        0.0671
     52 H           3.4030   -4.9057    0.0000 H       1  UNL1        0.0648
     53 H           7.1962    0.9043    0.0000 H       1  UNL1        0.0667
     54 H           4.8059   -5.0957    0.0000 H       1  UNL1        0.0647
     55 H           5.6720   -3.9757    0.0000 H       1  UNL1        0.0647
     56 H           8.5991    1.0943    0.0000 H       1  UNL1        0.0812
     57 H           6.3301    2.0243    0.0000 H       1  UNL1        0.0673
     58 H           4.5790    0.7513    0.0000 H       1  UNL1        0.0255
     59 H           3.7320    0.5243    0.0000 H       1  UNL1        0.0255
     60 H           3.9590   -0.3226    0.0000 H       1  UNL1        0.0255
     61 H           6.5380   -3.0957    0.0000 H       1  UNL1        0.2100
     62 H           6.6116   -4.8933    0.0000 H       1  UNL1        0.0584
     63 H           6.2131   -4.2030    0.0000 H       1  UNL1        0.0584
     64 H           8.2700   -1.4757    0.0000 H       1  UNL1        0.2101
     65 H           2.0000   -3.0957    0.0000 H       1  UNL1        0.2101
     66 H           2.5369   -5.4057    0.0000 H       1  UNL1        0.2100
     67 H           3.7320   -6.0957    0.0000 H       1  UNL1        0.2100
     68 H           5.4641    1.5243    0.0000 H       1  UNL1        0.2104
     69 H           8.2896    4.5596    0.0000 H       1  UNL1        0.0691
     70 H          10.3312    2.3343    0.0000 H       1  UNL1        0.0659
     71 H           8.9282   -0.0957    0.0000 H       1  UNL1        0.0659
     72 H           6.5380   -6.0957    0.0000 H       1  UNL1        0.2095
     73 H           5.4109    4.5707    0.0000 H       1  UNL1        0.0691
     74 H           4.5564    3.0150    0.0000 H       1  UNL1        0.2922
     75 H           6.3192    6.0957    0.0000 H       1  UNL1        0.2921
     76 H          10.8681   -1.5957    0.0000 H       1  UNL1        0.2923
     77 H          12.0632    2.3343    0.0000 H       1  UNL1        0.2923
     78 H          12.6002    0.0243    0.0000 H       1  UNL1        0.2924
@<TRIPOS>BOND
     1     1    18    1
     2     1    23    1
     3     2    20    1
     4     2    22    1
     5     3    22    1
     6     3    26    1
     7     4    23    1
     8     4    28    1
     9     5    19    1
    10     5    61    1
    11     6    21    1
    12     6    64    1
    13     7    29    1
    14     7    35    1
    15     8    24    1
    16     8    65    1
    17     9    25    1
    18     9    66    1
    19    10    27    1
    20    10    67    1
    21    11    30    1
    22    11    68    1
    23    12    33    1
    24    12    72    1
    25    13    36    1
    26    13    74    1
    27    14    41    1
    28    14    75    1
    29    15    42    1
    30    15    76    1
    31    16    43    1
    32    16    77    1
    33    17    44    1
    34    17    78    1
    35    18    19    1
    36    18    20    1
    37    18    45    1
    38    19    21    1
    39    19    46    1
    40    20    31    1
    41    20    47    1
    42    21    22    1
    43    21    48    1
    44    22    49    1
    45    23    24    1
    46    23    50    1
    47    24    25    1
    48    24    51    1
    49    25    27    1
    50    25    52    1
    51    26    29    1
    52    26    30    1
    53    26    53    1
    54    27    28    1
    55    27    54    1
    56    28    33    1
    57    28    55    1
    58    29    34    1
    59    29    56    1
    60    30    32    1
    61    30    57    1
    62    31    58    1
    63    31    59    1
    64    31    60    1
    65    32    35   ar
    66    32    36   ar
    67    33    62    1
    68    33    63    1
    69    34    38   ar
    70    34    39   ar
    71    35    37   ar
    72    36    40   ar
    73    37    41   ar
    74    37    69    1
    75    38    43   ar
    76    38    70    1
    77    39    42   ar
    78    39    71    1
    79    40    41   ar
    80    40    73    1
    81    42    44   ar
    82    43    44   ar
