@<TRIPOS>MOLECULE
IMPHY013619
 53 53 0 0 0
SMALL
GASTEIGER

@<TRIPOS>ATOM
      1 O           4.6200   -3.6286    0.0000 O.3     1  UNL1       -0.3907
      2 C           4.1200    2.4335    0.0000 C.3     1  UNL1       -0.0167
      3 C           3.1200    2.4335    0.0000 C.3     1  UNL1       -0.0426
      4 C           4.6200    1.5675    0.0000 C.3     1  UNL1       -0.0280
      5 C           2.6200    1.5675    0.0000 C.3     1  UNL1       -0.0315
      6 C           4.6200    3.2996    0.0000 C.2     1  UNL1       -0.0763
      7 C           3.1200    0.7015    0.0000 C.2     1  UNL1       -0.0765
      8 C           5.6200    1.5675    0.0000 C.2     1  UNL1       -0.0845
      9 C           6.1200    0.7015    0.0000 C.2     1  UNL1       -0.0762
     10 C           5.6200   -0.1645    0.0000 C.3     1  UNL1       -0.0286
     11 C           3.1200   -1.0306    0.0000 C.3     1  UNL1       -0.0308
     12 C           2.6200   -0.1645    0.0000 C.2     1  UNL1       -0.0847
     13 C           4.1200   -1.0306    0.0000 C.3     1  UNL1       -0.0262
     14 C           6.1200   -1.0306    0.0000 C.3     1  UNL1       -0.0308
     15 C           4.1200    4.1656    0.0000 C.3     1  UNL1       -0.0438
     16 C           4.6200   -1.8966    0.0000 C.2     1  UNL1       -0.0481
     17 C           4.1200    0.7015    0.0000 C.3     1  UNL1       -0.0438
     18 C           5.6200   -1.8966    0.0000 C.2     1  UNL1       -0.0823
     19 C           5.6200    3.2996    0.0000 C.2     1  UNL1       -0.0994
     20 C           7.1200    0.7015    0.0000 C.3     1  UNL1       -0.0438
     21 C           4.1200   -2.7626    0.0000 C.3     1  UNL1        0.0653
     22 H           4.7400    2.4335    0.0000 H       1  UNL1        0.0348
     23 H           3.2277    3.0441    0.0000 H       1  UNL1        0.0274
     24 H           2.5374    2.6456    0.0000 H       1  UNL1        0.0274
     25 H           4.0374    1.3554    0.0000 H       1  UNL1        0.0313
     26 H           4.7277    0.9569    0.0000 H       1  UNL1        0.0313
     27 H           2.1450    1.9660    0.0000 H       1  UNL1        0.0310
     28 H           2.1450    1.1690    0.0000 H       1  UNL1        0.0310
     29 H           5.9300    2.1044    0.0000 H       1  UNL1        0.0572
     30 H           5.1450    0.2340    0.0000 H       1  UNL1        0.0313
     31 H           5.1450   -0.5631    0.0000 H       1  UNL1        0.0313
     32 H           2.5374   -1.2426    0.0000 H       1  UNL1        0.0310
     33 H           3.2277   -1.6412    0.0000 H       1  UNL1        0.0310
     34 H           2.0000   -0.1645    0.0000 H       1  UNL1        0.0572
     35 H           4.7026   -0.8185    0.0000 H       1  UNL1        0.0314
     36 H           4.0123   -0.4200    0.0000 H       1  UNL1        0.0314
     37 H           6.5950   -1.4291    0.0000 H       1  UNL1        0.0310
     38 H           6.5950   -0.6320    0.0000 H       1  UNL1        0.0310
     39 H           4.6569    4.4756    0.0000 H       1  UNL1        0.0274
     40 H           3.8100    4.7025    0.0000 H       1  UNL1        0.0274
     41 H           3.5831    3.8556    0.0000 H       1  UNL1        0.0274
     42 H           4.1200    0.0815    0.0000 H       1  UNL1        0.0274
     43 H           4.7400    0.7015    0.0000 H       1  UNL1        0.0274
     44 H           4.1200    1.3215    0.0000 H       1  UNL1        0.0274
     45 H           5.9300   -2.4335    0.0000 H       1  UNL1        0.0572
     46 H           5.9300    2.7626    0.0000 H       1  UNL1        0.0534
     47 H           5.9300    3.8365    0.0000 H       1  UNL1        0.0534
     48 H           7.1200    0.0815    0.0000 H       1  UNL1        0.0274
     49 H           7.7400    0.7015    0.0000 H       1  UNL1        0.0274
     50 H           7.1200    1.3215    0.0000 H       1  UNL1        0.0274
     51 H           3.6450   -2.3641    0.0000 H       1  UNL1        0.0604
     52 H           3.6450   -3.1612    0.0000 H       1  UNL1        0.0604
     53 H           4.3100   -4.1656    0.0000 H       1  UNL1        0.2098
@<TRIPOS>BOND
     1     1    21    1
     2     1    53    1
     3     2     3    1
     4     2     4    1
     5     2     6    1
     6     2    22    1
     7     3     5    1
     8     3    23    1
     9     3    24    1
    10     4     8    1
    11     4    25    1
    12     4    26    1
    13     5     7    1
    14     5    27    1
    15     5    28    1
    16     6    15    1
    17     6    19    2
    18     7    12    2
    19     7    17    1
    20     8     9    2
    21     8    29    1
    22     9    10    1
    23     9    20    1
    24    10    14    1
    25    10    30    1
    26    10    31    1
    27    11    12    1
    28    11    13    1
    29    11    32    1
    30    11    33    1
    31    12    34    1
    32    13    16    1
    33    13    35    1
    34    13    36    1
    35    14    18    1
    36    14    37    1
    37    14    38    1
    38    15    39    1
    39    15    40    1
    40    15    41    1
    41    16    18    2
    42    16    21    1
    43    17    42    1
    44    17    43    1
    45    17    44    1
    46    18    45    1
    47    19    46    1
    48    19    47    1
    49    20    48    1
    50    20    49    1
    51    20    50    1
    52    21    51    1
    53    21    52    1
