@<TRIPOS>MOLECULE
IMPHY011692
 19 18 0 0 0
SMALL
GASTEIGER

@<TRIPOS>ATOM
      1 O           7.1962    0.2500    0.0000 O.3     1  UNL1       -0.3947
      2 C           5.4641    0.2500    0.0000 C.3     1  UNL1       -0.0115
      3 C           2.8660   -0.2500    0.0000 C.3     1  UNL1       -0.0376
      4 C           4.5981   -0.2500    0.0000 C.2     1  UNL1       -0.0858
      5 C           3.7320    0.2500    0.0000 C.2     1  UNL1       -0.0881
      6 C           6.3301   -0.2500    0.0000 C.3     1  UNL1        0.0476
      7 C           2.0000    0.2500    0.0000 C.3     1  UNL1       -0.0618
      8 H           5.8626    0.7249    0.0000 H       1  UNL1        0.0329
      9 H           5.0656    0.7249    0.0000 H       1  UNL1        0.0329
     10 H           2.4675   -0.7249    0.0000 H       1  UNL1        0.0305
     11 H           3.2646   -0.7249    0.0000 H       1  UNL1        0.0305
     12 H           4.5981   -0.8700    0.0000 H       1  UNL1        0.0570
     13 H           3.7320    0.8700    0.0000 H       1  UNL1        0.0569
     14 H           5.9316   -0.7249    0.0000 H       1  UNL1        0.0560
     15 H           6.7287   -0.7249    0.0000 H       1  UNL1        0.0560
     16 H           2.3100    0.7869    0.0000 H       1  UNL1        0.0233
     17 H           1.4631    0.5600    0.0000 H       1  UNL1        0.0233
     18 H           1.6900   -0.2869    0.0000 H       1  UNL1        0.0233
     19 H           7.7331   -0.0600    0.0000 H       1  UNL1        0.2094
@<TRIPOS>BOND
     1     1     6    1
     2     1    19    1
     3     2     4    1
     4     2     6    1
     5     2     8    1
     6     2     9    1
     7     3     5    1
     8     3     7    1
     9     3    10    1
    10     3    11    1
    11     4     5    2
    12     4    12    1
    13     5    13    1
    14     6    14    1
    15     6    15    1
    16     7    16    1
    17     7    17    1
    18     7    18    1
