@<TRIPOS>MOLECULE
IMPHY010214
 130 138 0 0 0
SMALL
GASTEIGER

@<TRIPOS>ATOM
      1 O          10.6948    4.0403    0.0000 O.3     1  UNL1       -0.3448
      2 O           8.9224    4.9351    0.0000 O.3     1  UNL1       -0.3480
      3 O           9.2718   -4.2038    0.0000 O.3     1  UNL1       -0.3451
      4 O           7.5397   -4.2038    0.0000 O.3     1  UNL1       -0.3405
      5 O           9.2718   -6.2038    0.0000 O.3     1  UNL1       -0.3378
      6 O           7.5397   -7.2038    0.0000 O.3     1  UNL1       -0.3864
      7 O           5.8076   -6.2038    0.0000 O.3     1  UNL1       -0.3401
      8 O          10.1378   -4.7038    0.0000 O.3     1  UNL1       -0.3431
      9 O           5.8076   -3.2038    0.0000 O.3     1  UNL1       -0.3924
     10 O           4.8371   -4.7092    0.0000 O.3     1  UNL1       -0.3405
     11 O          11.0038   -7.2038    0.0000 O.3     1  UNL1       -0.3841
     12 O          12.7359   -6.2038    0.0000 O.3     1  UNL1       -0.3864
     13 O           3.8202   -7.0886    0.0000 O.3     1  UNL1       -0.3841
     14 O          12.7359   -4.2038    0.0000 O.3     1  UNL1       -0.3866
     15 O           2.3644   -5.4719    0.0000 O.3     1  UNL1       -0.3864
     16 O           4.0400   -2.7788    0.0000 O.3     1  UNL1       -0.3924
     17 C           9.3010    1.9931    0.0000 C.3     1  UNL1       -0.0233
     18 C          10.1690    1.4965    0.0000 C.3     1  UNL1       -0.0295
     19 C           9.5065    2.9657    0.0000 C.3     1  UNL1       -0.0015
     20 C          10.1728    0.4965    0.0000 C.3     1  UNL1       -0.0306
     21 C          10.4948    3.0726    0.0000 C.3     1  UNL1        0.0660
     22 C           9.3087   -0.0069    0.0000 C.3     1  UNL1       -0.0285
     23 C          10.9034    2.1664    0.0000 C.3     1  UNL1       -0.0226
     24 C           8.4369    1.4898    0.0000 C.3     1  UNL1       -0.0467
     25 C           9.1042    3.8683    0.0000 C.3     1  UNL1        0.0160
     26 C           8.4408    0.4898    0.0000 C.3     1  UNL1       -0.0486
     27 C           9.2967   -1.0484    0.0000 C.3     1  UNL1       -0.0078
     28 C           9.8371    4.5311    0.0000 C.3     1  UNL1        0.1732
     29 C           8.4331    2.4898    0.0000 C.3     1  UNL1       -0.0590
     30 C          11.0848   -0.0069    0.0000 C.3     1  UNL1       -0.0311
     31 C          10.1967   -1.5727    0.0000 C.2     1  UNL1       -0.0648
     32 C           8.3468   -1.5727    0.0000 C.3     1  UNL1       -0.0413
     33 C           8.1258    4.0750    0.0000 C.3     1  UNL1       -0.0572
     34 C          10.6444    5.1213    0.0000 C.3     1  UNL1        0.0020
     35 C          11.0968   -1.0484    0.0000 C.2     1  UNL1       -0.0839
     36 C           8.4326   -0.5451    0.0000 C.3     1  UNL1       -0.0556
     37 C          10.2093   -2.6576    0.0000 C.3     1  UNL1       -0.0047
     38 C           8.3342   -2.6576    0.0000 C.3     1  UNL1       -0.0254
     39 C           9.2718   -3.2038    0.0000 C.3     1  UNL1        0.0655
     40 C          10.5369    6.1155    0.0000 C.3     1  UNL1       -0.0435
     41 C           9.6221    6.5195    0.0000 C.3     1  UNL1       -0.0201
     42 C           8.8149    5.9293    0.0000 C.3     1  UNL1        0.0535
     43 C           9.5146    7.5138    0.0000 C.3     1  UNL1       -0.0603
     44 C           8.4057   -4.7038    0.0000 C.3     1  UNL1        0.1886
     45 C           8.4057   -5.7038    0.0000 C.3     1  UNL1        0.1406
     46 C           7.5397   -6.2038    0.0000 C.3     1  UNL1        0.1148
     47 C           6.6737   -4.7038    0.0000 C.3     1  UNL1        0.1134
     48 C           6.6737   -5.7038    0.0000 C.3     1  UNL1        0.1184
     49 C           5.8076   -4.2038    0.0000 C.3     1  UNL1        0.0730
     50 C          10.1378   -5.7038    0.0000 C.3     1  UNL1        0.1884
     51 C          11.0038   -6.2038    0.0000 C.3     1  UNL1        0.1341
     52 C           4.9416   -5.7038    0.0000 C.3     1  UNL1        0.1884
     53 C          11.8698   -5.7038    0.0000 C.3     1  UNL1        0.1140
     54 C           4.0281   -6.1105    0.0000 C.3     1  UNL1        0.1341
     55 C          11.0038   -4.2038    0.0000 C.3     1  UNL1        0.0873
     56 C          11.8698   -4.7038    0.0000 C.3     1  UNL1        0.1095
     57 C           3.3590   -5.3673    0.0000 C.3     1  UNL1        0.1141
     58 C           3.8590   -4.5013    0.0000 C.3     1  UNL1        0.1131
     59 C          11.0038   -3.2038    0.0000 C.3     1  UNL1       -0.0361
     60 C           3.4522   -3.5878    0.0000 C.3     1  UNL1        0.0730
     61 H          10.9472    1.1548    0.0000 H       1  UNL1        0.0310
     62 H           8.6612    2.8762    0.0000 H       1  UNL1        0.0335
     63 H          10.9040    0.9300    0.0000 H       1  UNL1        0.0310
     64 H          11.3397    3.1658    0.0000 H       1  UNL1        0.0600
     65 H          10.0432   -0.4347    0.0000 H       1  UNL1        0.0312
     66 H          11.2708    1.6670    0.0000 H       1  UNL1        0.0293
     67 H          11.4387    2.4792    0.0000 H       1  UNL1        0.0293
     68 H           8.2226    2.0716    0.0000 H       1  UNL1        0.0271
     69 H           7.8268    1.3798    0.0000 H       1  UNL1        0.0271
     70 H           8.7144    3.3862    0.0000 H       1  UNL1        0.0354
     71 H           7.8298    0.5951    0.0000 H       1  UNL1        0.0268
     72 H           8.2310   -0.0936    0.0000 H       1  UNL1        0.0268
     73 H           8.7410    3.0279    0.0000 H       1  UNL1        0.0235
     74 H           7.8949    2.7977    0.0000 H       1  UNL1        0.0235
     75 H           8.1251    1.9517    0.0000 H       1  UNL1        0.0235
     76 H          11.6968   -0.1059    0.0000 H       1  UNL1        0.0310
     77 H          11.2871    0.5792    0.0000 H       1  UNL1        0.0310
     78 H           8.1445   -0.9866    0.0000 H       1  UNL1        0.0274
     79 H           7.7347   -1.6717    0.0000 H       1  UNL1        0.0274
     80 H           8.2539    4.6816    0.0000 H       1  UNL1        0.0234
     81 H           7.5192    4.2032    0.0000 H       1  UNL1        0.0234
     82 H           7.9976    3.4684    0.0000 H       1  UNL1        0.0234
     83 H          10.9179    4.5649    0.0000 H       1  UNL1        0.0317
     84 H          11.2399    5.2940    0.0000 H       1  UNL1        0.0317
     85 H          11.6361   -1.3543    0.0000 H       1  UNL1        0.0572
     86 H           8.7446   -0.0093    0.0000 H       1  UNL1        0.0238
     87 H           7.8968   -0.2330    0.0000 H       1  UNL1        0.0238
     88 H           8.1205   -1.0808    0.0000 H       1  UNL1        0.0238
     89 H          10.4251   -3.2389    0.0000 H       1  UNL1        0.0335
     90 H          10.8189   -2.5445    0.0000 H       1  UNL1        0.0335
     91 H           7.7246   -2.5445    0.0000 H       1  UNL1        0.0290
     92 H           8.1184   -3.2389    0.0000 H       1  UNL1        0.0290
     93 H           9.8093   -3.5127    0.0000 H       1  UNL1        0.0600
     94 H          11.1555    6.0741    0.0000 H       1  UNL1        0.0270
     95 H          10.6851    6.7176    0.0000 H       1  UNL1        0.0270
     96 H          10.1226    6.8855    0.0000 H       1  UNL1        0.0320
     97 H           8.5414    6.4858    0.0000 H       1  UNL1        0.0563
     98 H           8.2194    5.7567    0.0000 H       1  UNL1        0.0563
     99 H          10.1310    7.5804    0.0000 H       1  UNL1        0.0233
    100 H           9.4480    8.1302    0.0000 H       1  UNL1        0.0233
    101 H           8.8982    7.4471    0.0000 H       1  UNL1        0.0233
    102 H           8.4057   -4.0838    0.0000 H       1  UNL1        0.0938
    103 H           8.4057   -6.3238    0.0000 H       1  UNL1        0.0675
    104 H           7.0028   -6.5138    0.0000 H       1  UNL1        0.0648
    105 H           6.6737   -4.0838    0.0000 H       1  UNL1        0.0647
    106 H           6.1367   -5.3938    0.0000 H       1  UNL1        0.0651
    107 H           5.1971   -4.0961    0.0000 H       1  UNL1        0.0584
    108 H           5.5956   -4.7864    0.0000 H       1  UNL1        0.0584
    109 H           9.6008   -5.3938    0.0000 H       1  UNL1        0.0938
    110 H           7.0028   -7.5138    0.0000 H       1  UNL1        0.2100
    111 H          10.4669   -6.5138    0.0000 H       1  UNL1        0.0671
    112 H           4.9092   -6.3229    0.0000 H       1  UNL1        0.0938
    113 H           5.2707   -2.8938    0.0000 H       1  UNL1        0.2095
    114 H          12.4068   -5.3938    0.0000 H       1  UNL1        0.0648
    115 H           4.5099   -6.5007    0.0000 H       1  UNL1        0.0671
    116 H          10.4669   -3.8938    0.0000 H       1  UNL1        0.0621
    117 H          11.8698   -4.0838    0.0000 H       1  UNL1        0.0646
    118 H           3.1368   -5.9462    0.0000 H       1  UNL1        0.0648
    119 H           4.2491   -4.0195    0.0000 H       1  UNL1        0.0647
    120 H          11.5407   -7.5138    0.0000 H       1  UNL1        0.2101
    121 H          11.6238   -3.2038    0.0000 H       1  UNL1        0.0255
    122 H          11.0038   -2.5838    0.0000 H       1  UNL1        0.0255
    123 H          10.3838   -3.2038    0.0000 H       1  UNL1        0.0255
    124 H          13.2728   -5.8938    0.0000 H       1  UNL1        0.2100
    125 H           4.2809   -7.5035    0.0000 H       1  UNL1        0.2101
    126 H           3.0215   -3.1418    0.0000 H       1  UNL1        0.0584
    127 H           2.9382   -3.9345    0.0000 H       1  UNL1        0.0584
    128 H          13.2728   -4.5138    0.0000 H       1  UNL1        0.2100
    129 H           2.0000   -4.9703    0.0000 H       1  UNL1        0.2100
    130 H           3.7878   -2.2123    0.0000 H       1  UNL1        0.2095
@<TRIPOS>BOND
     1     1    21    1
     2    28     1    1
     3     2    28    1
     4     2    42    1
     5     3    39    1
     6     3    44    1
     7     4    44    1
     8     4    47    1
     9    45     5    1
    10    50     5    1
    11    46     6    1
    12     6   110    1
    13     7    48    1
    14    52     7    1
    15     8    50    1
    16     8    55    1
    17     9    49    1
    18     9   113    1
    19    10    52    1
    20    10    58    1
    21    51    11    1
    22    11   120    1
    23    53    12    1
    24    12   124    1
    25    54    13    1
    26    13   125    1
    27    56    14    1
    28    14   128    1
    29    57    15    1
    30    15   129    1
    31    16    60    1
    32    16   130    1
    33    17    18    1
    34    17    19    1
    35    17    24    1
    36    17    29    1
    37    18    20    1
    38    18    23    1
    39    18    61    1
    40    19    21    1
    41    19    25    1
    42    19    62    1
    43    20    22    1
    44    20    30    1
    45    20    63    1
    46    21    23    1
    47    21    64    1
    48    22    26    1
    49    22    27    1
    50    22    65    1
    51    23    66    1
    52    23    67    1
    53    24    26    1
    54    24    68    1
    55    24    69    1
    56    25    28    1
    57    25    33    1
    58    25    70    1
    59    26    71    1
    60    26    72    1
    61    27    31    1
    62    27    32    1
    63    27    36    1
    64    28    34    1
    65    29    73    1
    66    29    74    1
    67    29    75    1
    68    30    35    1
    69    30    76    1
    70    30    77    1
    71    31    35    2
    72    31    37    1
    73    32    38    1
    74    32    78    1
    75    32    79    1
    76    33    80    1
    77    33    81    1
    78    33    82    1
    79    34    40    1
    80    34    83    1
    81    34    84    1
    82    35    85    1
    83    36    86    1
    84    36    87    1
    85    36    88    1
    86    37    39    1
    87    37    89    1
    88    37    90    1
    89    38    39    1
    90    38    91    1
    91    38    92    1
    92    39    93    1
    93    40    41    1
    94    40    94    1
    95    40    95    1
    96    41    42    1
    97    41    43    1
    98    41    96    1
    99    42    97    1
   100    42    98    1
   101    43    99    1
   102    43   100    1
   103    43   101    1
   104    44    45    1
   105    44   102    1
   106    45    46    1
   107    45   103    1
   108    46    48    1
   109    46   104    1
   110    47    48    1
   111    47    49    1
   112    47   105    1
   113    48   106    1
   114    49   107    1
   115    49   108    1
   116    50    51    1
   117    50   109    1
   118    51    53    1
   119    51   111    1
   120    52    54    1
   121    52   112    1
   122    53    56    1
   123    53   114    1
   124    54    57    1
   125    54   115    1
   126    55    56    1
   127    55    59    1
   128    55   116    1
   129    56   117    1
   130    57    58    1
   131    57   118    1
   132    58    60    1
   133    58   119    1
   134    59   121    1
   135    59   122    1
   136    59   123    1
   137    60   126    1
   138    60   127    1
