@<TRIPOS>MOLECULE
IMPHY016120
 29 31 0 0 0
SMALL
GASTEIGER

@<TRIPOS>ATOM
      1 C           4.1369    0.0059    0.0000 C.3     1  UNL1       -0.0236
      2 C           3.3279    0.5937    0.0000 C.3     1  UNL1       -0.0236
      3 C           4.9459    0.5937    0.0000 C.3     1  UNL1       -0.0468
      4 C           3.8883   -1.4712    0.0000 C.3     1  UNL1       -0.0468
      5 C           3.8273   -0.9388    0.0000 C.3     1  UNL1       -0.0468
      6 C           3.6369    1.5447    0.0000 C.3     1  UNL1       -0.0468
      7 C           2.0000   -0.0992    0.0000 C.3     1  UNL1       -0.0468
      8 C           2.5252    0.0073    0.0000 C.3     1  UNL1       -0.0468
      9 C           4.6369    1.5447    0.0000 C.3     1  UNL1       -0.0520
     10 C           2.3923   -1.5447    0.0000 C.3     1  UNL1       -0.0520
     11 C           2.8332   -0.9379    0.0000 C.3     1  UNL1       -0.0520
     12 H           5.2559    0.0567    0.0000 H       1  UNL1        0.0271
     13 H           5.5123    0.8458    0.0000 H       1  UNL1        0.0271
     14 H           3.8742   -2.0910    0.0000 H       1  UNL1        0.0271
     15 H           4.5055   -1.5298    0.0000 H       1  UNL1        0.0271
     16 H           3.7616   -1.5553    0.0000 H       1  UNL1        0.0271
     17 H           4.4335   -1.0689    0.0000 H       1  UNL1        0.0271
     18 H           3.7017    2.1613    0.0000 H       1  UNL1        0.0271
     19 H           3.0305    1.6736    0.0000 H       1  UNL1        0.0271
     20 H           1.7535    0.4697    0.0000 H       1  UNL1        0.0271
     21 H           1.4149   -0.3042    0.0000 H       1  UNL1        0.0271
     22 H           2.2141    0.5436    0.0000 H       1  UNL1        0.0271
     23 H           1.9592   -0.2457    0.0000 H       1  UNL1        0.0271
     24 H           5.2434    1.6736    0.0000 H       1  UNL1        0.0266
     25 H           4.5721    2.1613    0.0000 H       1  UNL1        0.0266
     26 H           1.7838   -1.6637    0.0000 H       1  UNL1        0.0266
     27 H           2.4672   -2.1602    0.0000 H       1  UNL1        0.0266
     28 H           2.2268   -1.0670    0.0000 H       1  UNL1        0.0266
     29 H           2.8978   -1.5545    0.0000 H       1  UNL1        0.0266
@<TRIPOS>BOND
     1     1     2    1
     2     1     3    1
     3     1     4    1
     4     1     5    1
     5     2     6    1
     6     2     7    1
     7     2     8    1
     8     3     9    1
     9     3    12    1
    10     3    13    1
    11     4    10    1
    12     4    14    1
    13     4    15    1
    14     5    11    1
    15     5    16    1
    16     5    17    1
    17     6     9    1
    18     6    18    1
    19     6    19    1
    20     7    10    1
    21     7    20    1
    22     7    21    1
    23     8    11    1
    24     8    22    1
    25     8    23    1
    26     9    24    1
    27     9    25    1
    28    10    26    1
    29    10    27    1
    30    11    28    1
    31    11    29    1
