@<TRIPOS>MOLECULE
IMPHY007189
 35 38 0 0 0
SMALL
GASTEIGER

@<TRIPOS>ATOM
      1 O           2.8779   -2.4360    0.0000 O.3     1  UNL1       -0.3870
      2 O           4.6894   -3.4818    0.0000 O.3     1  UNL1       -0.3863
      3 O           6.4927   -2.4221    0.0000 O.3     1  UNL1       -0.3851
      4 O           6.2392    2.8820    0.0000 O.3     1  UNL1       -0.4524
      5 O           4.8454    3.6867    0.0000 O.3     1  UNL1       -0.4489
      6 O           2.0000    1.2180    0.0000 O.2     1  UNL1       -0.2700
      7 O           2.9042    2.7149    0.0000 O.3     1  UNL1       -0.5027
      8 N           2.8522   -0.3336    0.0000 N.am    1  UNL1       -0.3018
      9 C           3.7542   -0.8544    0.0000 C.3     1  UNL1        0.0774
     10 C           3.7459   -1.9393    0.0000 C.3     1  UNL1        0.1061
     11 C           4.6855   -2.4818    0.0000 C.3     1  UNL1        0.1124
     12 C           4.6523   -0.3266    0.0000 C.2     1  UNL1       -0.0180
     13 C           5.6209   -1.9321    0.0000 C.3     1  UNL1        0.1023
     14 C           5.6042   -0.8472    0.0000 C.2     1  UNL1       -0.0477
     15 C           4.6362    0.7149    0.0000 C.ar    1  UNL1       -0.0009
     16 C           3.7702    1.2149    0.0000 C.ar    1  UNL1        0.0893
     17 C           2.8602    0.7080    0.0000 C.2     1  UNL1        0.2488
     18 C           5.5022    1.2149    0.0000 C.ar    1  UNL1       -0.0077
     19 C           3.7702    2.2149    0.0000 C.ar    1  UNL1        0.1752
     20 C           5.5022    2.2149    0.0000 C.ar    1  UNL1        0.1705
     21 C           4.6362    2.7149    0.0000 C.ar    1  UNL1        0.2081
     22 C           5.8341    3.7898    0.0000 C.3     1  UNL1        0.2334
     23 H           3.0165   -1.2765    0.0000 H       1  UNL1        0.0575
     24 H           3.2107   -1.6262    0.0000 H       1  UNL1        0.0642
     25 H           4.1492   -2.7929    0.0000 H       1  UNL1        0.0649
     26 H           6.1536   -1.6149    0.0000 H       1  UNL1        0.0665
     27 H           6.1351   -0.5270    0.0000 H       1  UNL1        0.0602
     28 H           2.3140   -0.6415    0.0000 H       1  UNL1        0.1497
     29 H           6.0392    0.9049    0.0000 H       1  UNL1        0.0661
     30 H           2.8755   -3.0560    0.0000 H       1  UNL1        0.2100
     31 H           5.2275   -3.7898    0.0000 H       1  UNL1        0.2100
     32 H           7.0260   -2.1059    0.0000 H       1  UNL1        0.2103
     33 H           6.4237    3.9815    0.0000 H       1  UNL1        0.1166
     34 H           5.7054    4.3962    0.0000 H       1  UNL1        0.1166
     35 H           2.9042    3.3349    0.0000 H       1  UNL1        0.2923
@<TRIPOS>BOND
     1    10     1    1
     2     1    30    1
     3    11     2    1
     4     2    31    1
     5    13     3    1
     6     3    32    1
     7     4    20    1
     8     4    22    1
     9     5    21    1
    10     5    22    1
    11     6    17    2
    12     7    19    1
    13     7    35    1
    14     8     9    1
    15     8    17   am
    16     8    28    1
    17     9    10    1
    18     9    12    1
    19     9    23    1
    20    10    11    1
    21    10    24    1
    22    11    13    1
    23    11    25    1
    24    12    14    2
    25    12    15    1
    26    13    14    1
    27    13    26    1
    28    14    27    1
    29    15    16   ar
    30    15    18   ar
    31    16    17    1
    32    16    19   ar
    33    18    20   ar
    34    18    29    1
    35    19    21   ar
    36    20    21   ar
    37    22    33    1
    38    22    34    1
