@<TRIPOS>MOLECULE
IMPHY016713
 37 39 0 0 0
SMALL
GASTEIGER

@<TRIPOS>ATOM
      1 O           7.5709   -1.5673    0.0000 O.2     1  UNL1       -0.3001
      2 O           7.5709    1.1648    0.0000 O.2     1  UNL1       -0.2960
      3 C           5.2049   -1.2013    0.0000 C.3     1  UNL1       -0.0113
      4 C           6.0709   -0.7013    0.0000 C.3     1  UNL1        0.0597
      5 C           4.3388   -0.7013    0.0000 C.3     1  UNL1       -0.0276
      6 C           6.0712   -1.7017    0.0000 C.3     1  UNL1       -0.0294
      7 C           4.3388    0.2987    0.0000 C.3     1  UNL1       -0.0184
      8 C           3.3926   -1.0060    0.0000 C.3     1  UNL1       -0.0439
      9 C           2.8090   -0.2013    0.0000 C.3     1  UNL1       -0.0341
     10 C           3.3926    0.6035    0.0000 C.3     1  UNL1       -0.0413
     11 C           6.0709    0.2987    0.0000 C.2     1  UNL1        0.0017
     12 C           4.3388   -1.7013    0.0000 C.3     1  UNL1       -0.0581
     13 C           5.2049    0.7987    0.0000 C.2     1  UNL1       -0.0734
     14 C           7.0709   -0.7013    0.0000 C.2     1  UNL1        0.1313
     15 C           2.0000    0.3865    0.0000 C.3     1  UNL1       -0.0598
     16 C           2.0000   -0.7890    0.0000 C.3     1  UNL1       -0.0598
     17 C           6.5709    1.1648    0.0000 C.2     1  UNL1        0.1469
     18 H           5.0750   -0.2763    0.0000 H       1  UNL1        0.0312
     19 H           5.8590   -2.2843    0.0000 H       1  UNL1        0.0284
     20 H           6.6817   -1.8093    0.0000 H       1  UNL1        0.0284
     21 H           4.2489    1.1440    0.0000 H       1  UNL1        0.0346
     22 H           2.8552   -1.3152    0.0000 H       1  UNL1        0.0273
     23 H           3.6437   -1.5729    0.0000 H       1  UNL1        0.0273
     24 H           3.6437    1.1704    0.0000 H       1  UNL1        0.0276
     25 H           2.8552    0.9127    0.0000 H       1  UNL1        0.0276
     26 H           4.0288   -1.1643    0.0000 H       1  UNL1        0.0236
     27 H           3.8019   -2.0113    0.0000 H       1  UNL1        0.0236
     28 H           4.6489   -2.2382    0.0000 H       1  UNL1        0.0236
     29 H           5.2049    1.4187    0.0000 H       1  UNL1        0.0579
     30 H           7.3809   -0.1643    0.0000 H       1  UNL1        0.1036
     31 H           2.3644    0.8881    0.0000 H       1  UNL1        0.0235
     32 H           1.4984    0.7510    0.0000 H       1  UNL1        0.0235
     33 H           1.6356   -0.1151    0.0000 H       1  UNL1        0.0235
     34 H           1.6356   -0.2875    0.0000 H       1  UNL1        0.0235
     35 H           1.4984   -1.1535    0.0000 H       1  UNL1        0.0235
     36 H           2.3644   -1.2906    0.0000 H       1  UNL1        0.0235
     37 H           6.2609    1.7017    0.0000 H       1  UNL1        0.1078
@<TRIPOS>BOND
     1     1    14    2
     2     2    17    2
     3     3     4    1
     4     3     5    1
     5     3     6    1
     6     3    12    1
     7     4     6    1
     8     4    11    1
     9     4    14    1
    10     5     7    1
    11     5     8    1
    12     5    18    1
    13     6    19    1
    14     6    20    1
    15     7    10    1
    16     7    13    1
    17     7    21    1
    18     8     9    1
    19     8    22    1
    20     8    23    1
    21     9    10    1
    22     9    15    1
    23     9    16    1
    24    10    24    1
    25    10    25    1
    26    11    13    2
    27    11    17    1
    28    12    26    1
    29    12    27    1
    30    12    28    1
    31    13    29    1
    32    14    30    1
    33    15    31    1
    34    15    32    1
    35    15    33    1
    36    16    34    1
    37    16    35    1
    38    16    36    1
    39    17    37    1
