@<TRIPOS>MOLECULE
IMPHY005356
 96 102 0 0 0
SMALL
GASTEIGER

@<TRIPOS>ATOM
      1 O           8.2061    0.7413    0.0000 O.3     1  UNL1       -0.4501
      2 O           8.4800   -1.8419    0.0000 O.3     1  UNL1       -0.4496
      3 O           9.9309   -1.3495    0.0000 O.3     1  UNL1       -0.4505
      4 O           6.4972   -1.5809    0.0000 O.3     1  UNL1       -0.4424
      5 O           9.6720    1.0307    0.0000 O.3     1  UNL1       -0.4573
      6 O           5.7318    0.2669    0.0000 O.3     1  UNL1       -0.4780
      7 O           7.3320    0.9297    0.0000 O.2     1  UNL1       -0.2467
      8 O           9.7023    1.5202    0.0000 O.2     1  UNL1       -0.2449
      9 O           8.2540   -3.5592    0.0000 O.2     1  UNL1       -0.2449
     10 O           5.1230   -0.5265    0.0000 O.2     1  UNL1       -0.2449
     11 O          11.1556   -2.5742    0.0000 O.2     1  UNL1       -0.2449
     12 O           8.7788    2.7161    0.0000 O.2     1  UNL1       -0.2449
     13 O           5.9730   -5.5002    0.0000 O.3     1  UNL1       -0.5028
     14 O           6.9577    4.6419    0.0000 O.3     1  UNL1       -0.5028
     15 O           5.0517   -4.9230    0.0000 O.3     1  UNL1       -0.5028
     16 O           7.8183    5.1388    0.0000 O.3     1  UNL1       -0.5028
     17 O          10.0773   -3.9608    0.0000 O.3     1  UNL1       -0.5032
     18 O           8.5050   -6.0098    0.0000 O.3     1  UNL1       -0.5009
     19 O           5.1760    1.5832    0.0000 O.3     1  UNL1       -0.5032
     20 O           5.1760    3.6315    0.0000 O.3     1  UNL1       -0.5009
     21 O           3.0189   -4.6714    0.0000 O.3     1  UNL1       -0.5009
     22 O           2.2351   -2.7790    0.0000 O.3     1  UNL1       -0.5032
     23 O           9.5842    6.1766    0.0000 O.3     1  UNL1       -0.5009
     24 O          11.3581    5.1524    0.0000 O.3     1  UNL1       -0.5032
     25 O          14.2429   -0.7117    0.0000 O.3     1  UNL1       -0.5032
     26 O          11.7934    1.7378    0.0000 O.3     1  UNL1       -0.5032
     27 O          13.7252    1.2202    0.0000 O.3     1  UNL1       -0.5009
     28 C           8.7061   -0.1247    0.0000 C.3     1  UNL1        0.1839
     29 C           8.0974   -0.9181    0.0000 C.3     1  UNL1        0.1908
     30 C           9.6720   -0.3835    0.0000 C.3     1  UNL1        0.1774
     31 C           7.1059   -0.7875    0.0000 C.3     1  UNL1        0.2390
     32 C          10.3792    0.3236    0.0000 C.3     1  UNL1        0.1333
     33 C           6.7232    0.1363    0.0000 C.2     1  UNL1        0.3499
     34 C           8.7061    1.6073    0.0000 C.2     1  UNL1        0.3405
     35 C           7.8713   -2.6353    0.0000 C.2     1  UNL1        0.3405
     36 C           6.8798   -2.5048    0.0000 C.ar    1  UNL1        0.0740
     37 C           7.8401    2.1073    0.0000 C.ar    1  UNL1        0.0740
     38 C           6.2711   -3.2981    0.0000 C.ar    1  UNL1        0.0458
     39 C           7.8401    3.1073    0.0000 C.ar    1  UNL1        0.0458
     40 C           5.2796   -3.1676    0.0000 C.ar    1  UNL1        0.0458
     41 C           5.5057   -1.4504    0.0000 C.2     1  UNL1        0.3409
     42 C           4.8970   -2.2437    0.0000 C.ar    1  UNL1        0.0740
     43 C           8.7061    3.6073    0.0000 C.ar    1  UNL1        0.0458
     44 C          10.8968   -1.6083    0.0000 C.2     1  UNL1        0.3399
     45 C           9.5721    3.1073    0.0000 C.ar    1  UNL1        0.0740
     46 C           9.5721    2.1073    0.0000 C.2     1  UNL1        0.3401
     47 C           8.4046   -2.4979    0.0000 C.ar    1  UNL1       -0.0017
     48 C           6.6590   -4.7727    0.0000 C.ar    1  UNL1        0.1708
     49 C           6.9462    1.5727    0.0000 C.ar    1  UNL1       -0.0017
     50 C           6.9462    3.6420    0.0000 C.ar    1  UNL1        0.1708
     51 C           4.6583   -4.0037    0.0000 C.ar    1  UNL1        0.1708
     52 C           3.8664   -2.0918    0.0000 C.ar    1  UNL1       -0.0017
     53 C           8.6901    4.6489    0.0000 C.ar    1  UNL1        0.1708
     54 C          11.6039   -0.9012    0.0000 C.ar    1  UNL1        0.0661
     55 C          10.4821    3.6142    0.0000 C.ar    1  UNL1       -0.0017
     56 C           9.0820   -3.8639    0.0000 C.ar    1  UNL1        0.1628
     57 C           8.1538   -5.0735    0.0000 C.ar    1  UNL1        0.2012
     58 C           6.0401    2.0865    0.0000 C.ar    1  UNL1        0.1628
     59 C           6.0401    3.1282    0.0000 C.ar    1  UNL1        0.2012
     60 C           3.6246   -3.8757    0.0000 C.ar    1  UNL1        0.2012
     61 C           3.2260   -2.9133    0.0000 C.ar    1  UNL1        0.1628
     62 C           9.5881    5.1766    0.0000 C.ar    1  UNL1        0.2012
     63 C          10.4902    4.6558    0.0000 C.ar    1  UNL1        0.1628
     64 C          11.3451    0.0648    0.0000 C.ar    1  UNL1       -0.0023
     65 C          12.5698   -1.1600    0.0000 C.ar    1  UNL1       -0.0023
     66 C          13.2769   -0.4529    0.0000 C.ar    1  UNL1        0.1628
     67 C          12.0522    0.7719    0.0000 C.ar    1  UNL1        0.1628
     68 C          13.0181    0.5130    0.0000 C.ar    1  UNL1        0.2006
     69 H           8.9793   -0.9296    0.0000 H       1  UNL1        0.0812
     70 H           7.7721   -0.1328    0.0000 H       1  UNL1        0.0817
     71 H          10.2709   -0.5440    0.0000 H       1  UNL1        0.0808
     72 H           6.4912   -0.7066    0.0000 H       1  UNL1        0.0893
     73 H          10.8176   -0.1148    0.0000 H       1  UNL1        0.0736
     74 H          10.8176    0.7620    0.0000 H       1  UNL1        0.0736
     75 H           8.7302   -1.9703    0.0000 H       1  UNL1        0.0664
     76 H           6.9533    0.9527    0.0000 H       1  UNL1        0.0664
     77 H           3.6358   -1.5163    0.0000 H       1  UNL1        0.0664
     78 H           5.4945    0.8397    0.0000 H       1  UNL1        0.2952
     79 H          11.0155    3.2980    0.0000 H       1  UNL1        0.0664
     80 H          10.7462    0.2252    0.0000 H       1  UNL1        0.0663
     81 H          12.7303   -1.7589    0.0000 H       1  UNL1        0.0663
     82 H           6.1510   -6.0942    0.0000 H       1  UNL1        0.2923
     83 H           6.4244    4.9581    0.0000 H       1  UNL1        0.2923
     84 H           4.6800   -5.4193    0.0000 H       1  UNL1        0.2923
     85 H           7.8111    5.7588    0.0000 H       1  UNL1        0.2923
     86 H          10.3339   -4.5252    0.0000 H       1  UNL1        0.2923
     87 H           8.1112   -6.4887    0.0000 H       1  UNL1        0.2924
     88 H           4.6379    1.8911    0.0000 H       1  UNL1        0.2923
     89 H           4.6379    3.3236    0.0000 H       1  UNL1        0.2924
     90 H           2.4039   -4.5928    0.0000 H       1  UNL1        0.2924
     91 H           2.0000   -2.2053    0.0000 H       1  UNL1        0.2923
     92 H          10.1200    6.4887    0.0000 H       1  UNL1        0.2924
     93 H          11.8939    4.8404    0.0000 H       1  UNL1        0.2923
     94 H          14.4033   -1.3106    0.0000 H       1  UNL1        0.2923
     95 H          12.2318    2.1762    0.0000 H       1  UNL1        0.2923
     96 H          14.3241    1.0597    0.0000 H       1  UNL1        0.2924
@<TRIPOS>BOND
     1     1    28    1
     2     1    34    1
     3     2    29    1
     4     2    35    1
     5    30     3    1
     6     3    44    1
     7     4    31    1
     8     4    41    1
     9     5    32    1
    10     5    46    1
    11     6    33    1
    12     6    78    1
    13     7    33    2
    14     8    34    2
    15     9    35    2
    16    10    41    2
    17    11    44    2
    18    12    46    2
    19    13    48    1
    20    13    82    1
    21    14    50    1
    22    14    83    1
    23    15    51    1
    24    15    84    1
    25    16    53    1
    26    16    85    1
    27    17    56    1
    28    17    86    1
    29    18    57    1
    30    18    87    1
    31    19    58    1
    32    19    88    1
    33    20    59    1
    34    20    89    1
    35    21    60    1
    36    21    90    1
    37    22    61    1
    38    22    91    1
    39    23    62    1
    40    23    92    1
    41    24    63    1
    42    24    93    1
    43    25    66    1
    44    25    94    1
    45    26    67    1
    46    26    95    1
    47    27    68    1
    48    27    96    1
    49    28    29    1
    50    28    30    1
    51    28    69    1
    52    29    31    1
    53    29    70    1
    54    30    32    1
    55    30    71    1
    56    31    33    1
    57    31    72    1
    58    32    73    1
    59    32    74    1
    60    34    37    1
    61    35    36    1
    62    36    38   ar
    63    36    47   ar
    64    37    39   ar
    65    37    49   ar
    66    38    40    1
    67    38    48   ar
    68    39    43    1
    69    39    50   ar
    70    40    42   ar
    71    40    51   ar
    72    41    42    1
    73    42    52   ar
    74    43    45   ar
    75    43    53   ar
    76    44    54    1
    77    45    46    1
    78    45    55   ar
    79    47    56   ar
    80    47    75    1
    81    48    57   ar
    82    49    58   ar
    83    49    76    1
    84    50    59   ar
    85    51    60   ar
    86    52    61   ar
    87    52    77    1
    88    53    62   ar
    89    54    64   ar
    90    54    65   ar
    91    55    63   ar
    92    55    79    1
    93    56    57   ar
    94    58    59   ar
    95    60    61   ar
    96    62    63   ar
    97    64    67   ar
    98    64    80    1
    99    65    66   ar
   100    65    81    1
   101    66    68   ar
   102    67    68   ar
