@<TRIPOS>MOLECULE
IMPHY004634
 42 41 0 0 0
SMALL
GASTEIGER

@<TRIPOS>ATOM
      1 O           2.5369   -0.7500    0.0000 O.3     1  UNL1       -0.4806
      2 O           3.4030   -2.2500    0.0000 O.2     1  UNL1       -0.2510
      3 C           6.8671   -1.2500    0.0000 C.3     1  UNL1       -0.0530
      4 C           7.7331   -0.7500    0.0000 C.3     1  UNL1       -0.0528
      5 C           6.0010   -0.7500    0.0000 C.3     1  UNL1       -0.0526
      6 C           8.5991   -1.2500    0.0000 C.3     1  UNL1       -0.0496
      7 C           5.1350   -1.2500    0.0000 C.3     1  UNL1       -0.0430
      8 C           9.4651   -0.7500    0.0000 C.3     1  UNL1       -0.0348
      9 C           4.2690   -0.7500    0.0000 C.3     1  UNL1        0.0448
     10 C          10.3312   -1.2500    0.0000 C.2     1  UNL1       -0.0879
     11 C          11.1972    0.2500    0.0000 C.3     1  UNL1       -0.0348
     12 C          12.0632    0.7500    0.0000 C.3     1  UNL1       -0.0499
     13 C          11.1972   -0.7500    0.0000 C.2     1  UNL1       -0.0879
     14 C          12.0632    1.7500    0.0000 C.3     1  UNL1       -0.0556
     15 C           3.4030   -1.2500    0.0000 C.2     1  UNL1        0.3047
     16 C          12.9292    2.2500    0.0000 C.3     1  UNL1       -0.0653
     17 H           6.4685   -1.7250    0.0000 H       1  UNL1        0.0265
     18 H           7.2656   -1.7250    0.0000 H       1  UNL1        0.0265
     19 H           8.1316   -0.2751    0.0000 H       1  UNL1        0.0265
     20 H           7.3346   -0.2751    0.0000 H       1  UNL1        0.0265
     21 H           6.3996   -0.2751    0.0000 H       1  UNL1        0.0265
     22 H           5.6025   -0.2751    0.0000 H       1  UNL1        0.0265
     23 H           8.2006   -1.7250    0.0000 H       1  UNL1        0.0268
     24 H           8.9976   -1.7250    0.0000 H       1  UNL1        0.0268
     25 H           4.7365   -1.7250    0.0000 H       1  UNL1        0.0270
     26 H           5.5335   -1.7250    0.0000 H       1  UNL1        0.0270
     27 H           9.8637   -0.2751    0.0000 H       1  UNL1        0.0307
     28 H           9.0666   -0.2751    0.0000 H       1  UNL1        0.0307
     29 H           4.6675   -0.2751    0.0000 H       1  UNL1        0.0377
     30 H           3.8705   -0.2751    0.0000 H       1  UNL1        0.0377
     31 H          10.3312   -1.8700    0.0000 H       1  UNL1        0.0569
     32 H          10.9851    0.8326    0.0000 H       1  UNL1        0.0307
     33 H          10.5866    0.1423    0.0000 H       1  UNL1        0.0307
     34 H          12.2753    0.1674    0.0000 H       1  UNL1        0.0268
     35 H          12.6738    0.8577    0.0000 H       1  UNL1        0.0268
     36 H          11.7341   -1.0600    0.0000 H       1  UNL1        0.0569
     37 H          11.8512    2.3326    0.0000 H       1  UNL1        0.0263
     38 H          11.4526    1.6423    0.0000 H       1  UNL1        0.0263
     39 H          13.2392    1.7131    0.0000 H       1  UNL1        0.0230
     40 H          13.4662    2.5600    0.0000 H       1  UNL1        0.0230
     41 H          12.6192    2.7869    0.0000 H       1  UNL1        0.0230
     42 H           2.0000   -1.0600    0.0000 H       1  UNL1        0.2951
@<TRIPOS>BOND
     1     1    15    1
     2     1    42    1
     3     2    15    2
     4     3     4    1
     5     3     5    1
     6     3    17    1
     7     3    18    1
     8     4     6    1
     9     4    19    1
    10     4    20    1
    11     5     7    1
    12     5    21    1
    13     5    22    1
    14     6     8    1
    15     6    23    1
    16     6    24    1
    17     7     9    1
    18     7    25    1
    19     7    26    1
    20     8    10    1
    21     8    27    1
    22     8    28    1
    23     9    15    1
    24     9    29    1
    25     9    30    1
    26    10    13    2
    27    10    31    1
    28    11    12    1
    29    11    13    1
    30    11    32    1
    31    11    33    1
    32    12    14    1
    33    12    34    1
    34    12    35    1
    35    13    36    1
    36    14    16    1
    37    14    37    1
    38    14    38    1
    39    16    39    1
    40    16    40    1
    41    16    41    1
