@<TRIPOS>MOLECULE
IMPHY002469
 56 57 0 0 0
SMALL
GASTEIGER

@<TRIPOS>ATOM
      1 O           6.3406   -3.5114    0.0000 O.3     1  UNL1       -0.3907
      2 O           2.7320    3.4973    0.0000 O.3     1  UNL1       -0.3848
      3 C           3.7320    0.0332    0.0000 C.3     1  UNL1       -0.0258
      4 C           4.5981   -0.4668    0.0000 C.3     1  UNL1       -0.0259
      5 C           4.5981   -1.4668    0.0000 C.3     1  UNL1       -0.0056
      6 C           2.8660   -0.4668    0.0000 C.3     1  UNL1       -0.0382
      7 C           3.7320   -1.9668    0.0000 C.3     1  UNL1       -0.0433
      8 C           2.8660   -1.4668    0.0000 C.3     1  UNL1       -0.0492
      9 C           5.4920    0.0679    0.0000 C.3     1  UNL1       -0.0455
     10 C           3.2320    0.8993    0.0000 C.3     1  UNL1       -0.0442
     11 C           5.4920   -2.0014    0.0000 C.2     1  UNL1       -0.0422
     12 C           4.2320    0.8993    0.0000 C.3     1  UNL1       -0.0590
     13 C           4.5981   -2.4668    0.0000 C.3     1  UNL1       -0.0555
     14 C           6.3981   -0.4460    0.0000 C.3     1  UNL1       -0.0341
     15 C           2.0000    0.0332    0.0000 C.3     1  UNL1       -0.0619
     16 C           6.3981   -1.4876    0.0000 C.2     1  UNL1       -0.0821
     17 C           3.7320    1.7653    0.0000 C.3     1  UNL1       -0.0201
     18 C           5.4804   -3.0014    0.0000 C.3     1  UNL1        0.0658
     19 C           3.2320    2.6313    0.0000 C.3     1  UNL1        0.0811
     20 C           2.3660    2.1313    0.0000 C.3     1  UNL1       -0.0325
     21 C           4.0981    3.1313    0.0000 C.2     1  UNL1       -0.0602
     22 C           4.0981    4.1313    0.0000 C.2     1  UNL1       -0.1000
     23 H           4.5933    0.1532    0.0000 H       1  UNL1        0.0315
     24 H           2.8660    0.1532    0.0000 H       1  UNL1        0.0303
     25 H           3.3335   -2.4417    0.0000 H       1  UNL1        0.0274
     26 H           4.1306   -2.4417    0.0000 H       1  UNL1        0.0274
     27 H           2.2554   -1.3591    0.0000 H       1  UNL1        0.0268
     28 H           2.6540   -2.0494    0.0000 H       1  UNL1        0.0268
     29 H           5.8856    0.5469    0.0000 H       1  UNL1        0.0271
     30 H           5.0874    0.5377    0.0000 H       1  UNL1        0.0271
     31 H           2.7571    1.2978    0.0000 H       1  UNL1        0.0272
     32 H           2.7571    0.5007    0.0000 H       1  UNL1        0.0272
     33 H           4.7690    0.5893    0.0000 H       1  UNL1        0.0235
     34 H           4.5420    1.4362    0.0000 H       1  UNL1        0.0235
     35 H           3.6951    1.2092    0.0000 H       1  UNL1        0.0235
     36 H           3.9781   -2.4668    0.0000 H       1  UNL1        0.0238
     37 H           4.5981   -3.0868    0.0000 H       1  UNL1        0.0238
     38 H           5.2181   -2.4668    0.0000 H       1  UNL1        0.0238
     39 H           7.0089   -0.5520    0.0000 H       1  UNL1        0.0308
     40 H           6.6071    0.1377    0.0000 H       1  UNL1        0.0308
     41 H           2.3100    0.5702    0.0000 H       1  UNL1        0.0233
     42 H           1.4631    0.3432    0.0000 H       1  UNL1        0.0233
     43 H           1.6900   -0.5037    0.0000 H       1  UNL1        0.0233
     44 H           6.9338   -1.7996    0.0000 H       1  UNL1        0.0573
     45 H           4.2070    1.3668    0.0000 H       1  UNL1        0.0296
     46 H           4.2070    2.1638    0.0000 H       1  UNL1        0.0296
     47 H           4.8712   -2.8866    0.0000 H       1  UNL1        0.0604
     48 H           5.2617   -3.5815    0.0000 H       1  UNL1        0.0604
     49 H           2.0560    2.6682    0.0000 H       1  UNL1        0.0260
     50 H           1.8291    1.8213    0.0000 H       1  UNL1        0.0260
     51 H           2.6760    1.5944    0.0000 H       1  UNL1        0.0260
     52 H           4.6350    2.8213    0.0000 H       1  UNL1        0.0594
     53 H           6.3335   -4.1313    0.0000 H       1  UNL1        0.2098
     54 H           3.0420    4.0343    0.0000 H       1  UNL1        0.2106
     55 H           4.6350    4.4413    0.0000 H       1  UNL1        0.0533
     56 H           3.5611    4.4413    0.0000 H       1  UNL1        0.0533
@<TRIPOS>BOND
     1     1    18    1
     2     1    53    1
     3     2    19    1
     4     2    54    1
     5     3     4    1
     6     3     6    1
     7     3    10    1
     8     3    12    1
     9     4     5    1
    10     4     9    1
    11     4    23    1
    12     5     7    1
    13     5    11    1
    14     5    13    1
    15     6     8    1
    16     6    15    1
    17     6    24    1
    18     7     8    1
    19     7    25    1
    20     7    26    1
    21     8    27    1
    22     8    28    1
    23     9    14    1
    24     9    29    1
    25     9    30    1
    26    10    17    1
    27    10    31    1
    28    10    32    1
    29    11    16    2
    30    11    18    1
    31    12    33    1
    32    12    34    1
    33    12    35    1
    34    13    36    1
    35    13    37    1
    36    13    38    1
    37    14    16    1
    38    14    39    1
    39    14    40    1
    40    15    41    1
    41    15    42    1
    42    15    43    1
    43    16    44    1
    44    17    19    1
    45    17    45    1
    46    17    46    1
    47    18    47    1
    48    18    48    1
    49    19    20    1
    50    19    21    1
    51    20    49    1
    52    20    50    1
    53    20    51    1
    54    21    22    2
    55    21    52    1
    56    22    55    1
    57    22    56    1
