@<TRIPOS>MOLECULE
IMPHY011628
 119 125 0 0 0
SMALL
GASTEIGER

@<TRIPOS>ATOM
      1 O           7.7331   -0.9100    0.0000 O.3     1  UNL1       -0.3448
      2 O           9.5542   -2.6808    0.0000 O.3     1  UNL1       -0.3944
      3 O          16.6462    2.2109    0.0000 O.3     1  UNL1       -0.4802
      4 O          15.7976    0.7010    0.0000 O.2     1  UNL1       -0.2504
      5 O           6.8671    0.5900    0.0000 O.3     1  UNL1       -0.3461
      6 O           6.0010   -1.9100    0.0000 O.3     1  UNL1       -0.3378
      7 O           4.2690   -0.9100    0.0000 O.3     1  UNL1       -0.3864
      8 O           4.2690    1.0900    0.0000 O.3     1  UNL1       -0.3869
      9 O           4.2690   -1.9100    0.0000 O.3     1  UNL1       -0.3431
     10 O           6.0010   -3.9100    0.0000 O.3     1  UNL1       -0.3841
     11 O           4.2690   -4.9100    0.0000 O.3     1  UNL1       -0.3864
     12 O           2.5369   -3.9100    0.0000 O.3     1  UNL1       -0.3866
     13 C          12.2541    0.6598    0.0000 C.3     1  UNL1       -0.0194
     14 C          11.3862    1.1565    0.0000 C.3     1  UNL1       -0.0257
     15 C          10.4781    0.6461    0.0000 C.3     1  UNL1       -0.0249
     16 C          13.1182    1.1631    0.0000 C.3     1  UNL1       -0.0051
     17 C          10.4741   -0.3955    0.0000 C.3     1  UNL1       -0.0255
     18 C          12.2742   -0.3816    0.0000 C.3     1  UNL1       -0.0463
     19 C           9.5408   -0.9488    0.0000 C.3     1  UNL1        0.0206
     20 C          11.3782   -0.9128    0.0000 C.3     1  UNL1       -0.0485
     21 C          13.1144    2.1631    0.0000 C.2     1  UNL1       -0.0629
     22 C           9.5491    1.2066    0.0000 C.3     1  UNL1       -0.0447
     23 C          11.3823    2.1564    0.0000 C.3     1  UNL1       -0.0306
     24 C          14.0062    2.7012    0.0000 C.3     1  UNL1       -0.0031
     25 C          14.0142    0.6319    0.0000 C.3     1  UNL1       -0.0424
     26 C          14.9143    2.1909    0.0000 C.3     1  UNL1        0.0741
     27 C           8.5991   -0.4100    0.0000 C.3     1  UNL1        0.0695
     28 C          12.8999   -0.1038    0.0000 C.3     1  UNL1       -0.0585
     29 C          14.9183    1.1493    0.0000 C.3     1  UNL1       -0.0359
     30 C          10.4820    1.6461    0.0000 C.3     1  UNL1       -0.0590
     31 C           8.6033    0.6750    0.0000 C.3     1  UNL1       -0.0254
     32 C          12.2464    2.6598    0.0000 C.2     1  UNL1       -0.0836
     33 C          13.4639    0.2248    0.0000 C.3     1  UNL1       -0.0553
     34 C          13.9770    3.7858    0.0000 C.3     1  UNL1       -0.0403
     35 C          15.8560    2.7298    0.0000 C.3     1  UNL1       -0.0362
     36 C          14.9060    4.3463    0.0000 C.3     1  UNL1       -0.0343
     37 C          10.0475   -1.8110    0.0000 C.3     1  UNL1        0.0522
     38 C           9.0475   -1.8187    0.0000 C.3     1  UNL1       -0.0548
     39 C          15.8518    3.8147    0.0000 C.3     1  UNL1       -0.0468
     40 C          15.7860    1.7009    0.0000 C.2     1  UNL1        0.3115
     41 C          15.3926    5.2200    0.0000 C.3     1  UNL1       -0.0598
     42 C          14.3927    5.2046    0.0000 C.3     1  UNL1       -0.0598
     43 C           6.8671   -0.4100    0.0000 C.3     1  UNL1        0.1882
     44 C           6.0010   -0.9100    0.0000 C.3     1  UNL1        0.1406
     45 C           5.1350   -0.4100    0.0000 C.3     1  UNL1        0.1141
     46 C           6.0010    1.0900    0.0000 C.3     1  UNL1        0.0792
     47 C           5.1350    0.5900    0.0000 C.3     1  UNL1        0.1069
     48 C           5.1350   -2.4100    0.0000 C.3     1  UNL1        0.1884
     49 C           5.1350   -3.4100    0.0000 C.3     1  UNL1        0.1341
     50 C           4.2690   -3.9100    0.0000 C.3     1  UNL1        0.1140
     51 C           3.4030   -2.4100    0.0000 C.3     1  UNL1        0.0873
     52 C           3.4030   -3.4100    0.0000 C.3     1  UNL1        0.1095
     53 C           2.5369   -1.9100    0.0000 C.3     1  UNL1       -0.0361
     54 H          12.1207    1.5843    0.0000 H       1  UNL1        0.0315
     55 H          10.4807   -1.2455    0.0000 H       1  UNL1        0.0313
     56 H          12.4945   -0.9612    0.0000 H       1  UNL1        0.0271
     57 H          12.8829   -0.2638    0.0000 H       1  UNL1        0.0271
     58 H          10.9827   -1.3904    0.0000 H       1  UNL1        0.0268
     59 H          11.7810   -1.3842    0.0000 H       1  UNL1        0.0268
     60 H           9.9555    1.6748    0.0000 H       1  UNL1        0.0271
     61 H           9.1574    1.6872    0.0000 H       1  UNL1        0.0271
     62 H          11.1680    2.7382    0.0000 H       1  UNL1        0.0310
     63 H          10.7722    2.0464    0.0000 H       1  UNL1        0.0310
     64 H          14.7340    3.1403    0.0000 H       1  UNL1        0.0357
     65 H          13.6114    0.1606    0.0000 H       1  UNL1        0.0274
     66 H          14.4097    0.1544    0.0000 H       1  UNL1        0.0274
     67 H           8.0628   -0.0989    0.0000 H       1  UNL1        0.0603
     68 H          12.4265   -0.5041    0.0000 H       1  UNL1        0.0235
     69 H          13.3002   -0.5772    0.0000 H       1  UNL1        0.0235
     70 H          13.3733    0.2966    0.0000 H       1  UNL1        0.0235
     71 H          15.1296    0.5664    0.0000 H       1  UNL1        0.0276
     72 H          15.5287    1.2577    0.0000 H       1  UNL1        0.0276
     73 H          11.1020    1.6437    0.0000 H       1  UNL1        0.0235
     74 H          10.4844    2.2661    0.0000 H       1  UNL1        0.0235
     75 H           9.8620    1.6485    0.0000 H       1  UNL1        0.0235
     76 H           8.3965    1.2595    0.0000 H       1  UNL1        0.0290
     77 H           7.9920    0.5713    0.0000 H       1  UNL1        0.0290
     78 H          12.2440    3.2798    0.0000 H       1  UNL1        0.0572
     79 H          12.8821    0.0105    0.0000 H       1  UNL1        0.0238
     80 H          13.6782   -0.3570    0.0000 H       1  UNL1        0.0238
     81 H          14.0456    0.4391    0.0000 H       1  UNL1        0.0238
     82 H          13.7522    4.3637    0.0000 H       1  UNL1        0.0276
     83 H          13.3692    3.6633    0.0000 H       1  UNL1        0.0276
     84 H          16.0673    2.1469    0.0000 H       1  UNL1        0.0276
     85 H          16.4664    2.8382    0.0000 H       1  UNL1        0.0276
     86 H          10.5255   -2.2058    0.0000 H       1  UNL1        0.0563
     87 H          10.5194   -1.4088    0.0000 H       1  UNL1        0.0563
     88 H           8.5082   -1.5128    0.0000 H       1  UNL1        0.0237
     89 H           8.7417   -2.3580    0.0000 H       1  UNL1        0.0237
     90 H           9.5868   -2.1245    0.0000 H       1  UNL1        0.0237
     91 H          16.4631    3.7110    0.0000 H       1  UNL1        0.0271
     92 H          16.0586    4.3992    0.0000 H       1  UNL1        0.0271
     93 H          14.9248    5.5228    0.0000 H       1  UNL1        0.0235
     94 H          14.0744    5.7366    0.0000 H       1  UNL1        0.0235
     95 H          13.8606    4.8863    0.0000 H       1  UNL1        0.0235
     96 H          15.9342    4.9183    0.0000 H       1  UNL1        0.0235
     97 H          15.6942    5.7616    0.0000 H       1  UNL1        0.0235
     98 H          14.8509    5.5216    0.0000 H       1  UNL1        0.0235
     99 H           6.8671   -1.0300    0.0000 H       1  UNL1        0.0937
    100 H           9.8683   -3.2154    0.0000 H       1  UNL1        0.2094
    101 H          17.1867    1.9071    0.0000 H       1  UNL1        0.2951
    102 H           5.4641   -1.2200    0.0000 H       1  UNL1        0.0675
    103 H           4.5981   -0.1000    0.0000 H       1  UNL1        0.0648
    104 H           6.3996    1.5650    0.0000 H       1  UNL1        0.0587
    105 H           5.6025    1.5650    0.0000 H       1  UNL1        0.0587
    106 H           5.1350    1.2100    0.0000 H       1  UNL1        0.0643
    107 H           5.1350   -1.7900    0.0000 H       1  UNL1        0.0938
    108 H           3.7320   -0.6000    0.0000 H       1  UNL1        0.2100
    109 H           4.2690    1.7100    0.0000 H       1  UNL1        0.2100
    110 H           5.1350   -4.0300    0.0000 H       1  UNL1        0.0671
    111 H           3.7320   -4.2200    0.0000 H       1  UNL1        0.0648
    112 H           3.4030   -1.7900    0.0000 H       1  UNL1        0.0621
    113 H           2.8660   -3.1000    0.0000 H       1  UNL1        0.0646
    114 H           6.0010   -4.5300    0.0000 H       1  UNL1        0.2101
    115 H           2.8469   -1.3730    0.0000 H       1  UNL1        0.0255
    116 H           2.0000   -1.6000    0.0000 H       1  UNL1        0.0255
    117 H           2.2269   -2.4469    0.0000 H       1  UNL1        0.0255
    118 H           3.7320   -5.2200    0.0000 H       1  UNL1        0.2100
    119 H           2.0000   -3.6000    0.0000 H       1  UNL1        0.2100
@<TRIPOS>BOND
     1    27     1    1
     2    43     1    1
     3     2    37    1
     4     2   100    1
     5     3    40    1
     6     3   101    1
     7     4    40    2
     8     5    43    1
     9     5    46    1
    10    44     6    1
    11    48     6    1
    12    45     7    1
    13     7   108    1
    14    47     8    1
    15     8   109    1
    16     9    48    1
    17     9    51    1
    18    49    10    1
    19    10   114    1
    20    50    11    1
    21    11   118    1
    22    52    12    1
    23    12   119    1
    24    13    14    1
    25    13    16    1
    26    13    18    1
    27    13    28    1
    28    14    15    1
    29    14    23    1
    30    14    54    1
    31    15    17    1
    32    15    22    1
    33    15    30    1
    34    16    21    1
    35    16    25    1
    36    16    33    1
    37    17    19    1
    38    17    20    1
    39    17    55    1
    40    18    20    1
    41    18    56    1
    42    18    57    1
    43    19    27    1
    44    19    37    1
    45    19    38    1
    46    20    58    1
    47    20    59    1
    48    21    24    1
    49    21    32    2
    50    22    31    1
    51    22    60    1
    52    22    61    1
    53    23    32    1
    54    23    62    1
    55    23    63    1
    56    24    26    1
    57    24    34    1
    58    24    64    1
    59    25    29    1
    60    25    65    1
    61    25    66    1
    62    26    29    1
    63    26    35    1
    64    26    40    1
    65    27    31    1
    66    27    67    1
    67    28    68    1
    68    28    69    1
    69    28    70    1
    70    29    71    1
    71    29    72    1
    72    30    73    1
    73    30    74    1
    74    30    75    1
    75    31    76    1
    76    31    77    1
    77    32    78    1
    78    33    79    1
    79    33    80    1
    80    33    81    1
    81    34    36    1
    82    34    82    1
    83    34    83    1
    84    35    39    1
    85    35    84    1
    86    35    85    1
    87    36    39    1
    88    36    41    1
    89    36    42    1
    90    37    86    1
    91    37    87    1
    92    38    88    1
    93    38    89    1
    94    38    90    1
    95    39    91    1
    96    39    92    1
    97    41    96    1
    98    41    97    1
    99    41    98    1
   100    42    93    1
   101    42    94    1
   102    42    95    1
   103    43    44    1
   104    43    99    1
   105    44    45    1
   106    44   102    1
   107    45    47    1
   108    45   103    1
   109    46    47    1
   110    46   104    1
   111    46   105    1
   112    47   106    1
   113    48    49    1
   114    48   107    1
   115    49    50    1
   116    49   110    1
   117    50    52    1
   118    50   111    1
   119    51    52    1
   120    51    53    1
   121    51   112    1
   122    52   113    1
   123    53   115    1
   124    53   116    1
   125    53   117    1
