@<TRIPOS>MOLECULE
IMPHY000838
 72 76 0 0 0
SMALL
GASTEIGER

@<TRIPOS>ATOM
      1 O           7.6994    1.9714    0.0000 O.3     1  UNL1       -0.4580
      2 O           2.0000   -2.6468    0.0000 O.2     1  UNL1       -0.2968
      3 O           6.8932    3.5606    0.0000 O.2     1  UNL1       -0.2508
      4 C           6.5271   -1.0945    0.0000 C.3     1  UNL1       -0.0231
      5 C           7.3931   -0.5945    0.0000 C.3     1  UNL1       -0.0232
      6 C           5.6610   -0.5945    0.0000 C.3     1  UNL1       -0.0294
      7 C           7.3931    0.4055    0.0000 C.3     1  UNL1       -0.0287
      8 C           4.7510   -1.1013    0.0000 C.3     1  UNL1       -0.0246
      9 C           4.7430   -2.1429    0.0000 C.3     1  UNL1       -0.0235
     10 C           8.3393    0.7102    0.0000 C.3     1  UNL1        0.0021
     11 C           6.5431   -2.1360    0.0000 C.3     1  UNL1       -0.0466
     12 C           5.6610    0.4055    0.0000 C.3     1  UNL1       -0.0489
     13 C           8.3393   -0.8992    0.0000 C.3     1  UNL1       -0.0465
     14 C           6.5271    0.9055    0.0000 C.3     1  UNL1       -0.0490
     15 C           5.6451   -2.6638    0.0000 C.3     1  UNL1       -0.0483
     16 C           8.9229   -0.0945    0.0000 C.3     1  UNL1       -0.0458
     17 C           7.1698   -1.8605    0.0000 C.3     1  UNL1       -0.0588
     18 C           3.8242   -0.5373    0.0000 C.3     1  UNL1       -0.0404
     19 C           3.8076   -2.6927    0.0000 C.3     1  UNL1        0.0267
     20 C           7.7352   -1.5341    0.0000 C.3     1  UNL1       -0.0588
     21 C           8.6500    1.6608    0.0000 C.3     1  UNL1        0.1143
     22 C           4.7587   -0.1014    0.0000 C.3     1  UNL1       -0.0590
     23 C           2.8763   -1.0652    0.0000 C.3     1  UNL1        0.0069
     24 C           2.8680   -2.1502    0.0000 C.2     1  UNL1        0.1392
     25 C           9.2392    2.4688    0.0000 C.3     1  UNL1       -0.0028
     26 C           3.3109   -3.5606    0.0000 C.3     1  UNL1       -0.0528
     27 C           4.3109   -3.5568    0.0000 C.3     1  UNL1       -0.0528
     28 C           9.4580    1.0716    0.0000 C.3     1  UNL1       -0.0246
     29 C           8.6528    3.2788    0.0000 C.3     1  UNL1        0.0486
     30 C           7.7012    2.9714    0.0000 C.2     1  UNL1        0.3077
     31 H           6.3972   -0.1695    0.0000 H       1  UNL1        0.0312
     32 H           7.4830    1.2507    0.0000 H       1  UNL1        0.0310
     33 H           4.7463   -2.9929    0.0000 H       1  UNL1        0.0315
     34 H           9.1790    0.8421    0.0000 H       1  UNL1        0.0342
     35 H           6.7612   -2.7164    0.0000 H       1  UNL1        0.0271
     36 H           7.1523   -2.0205    0.0000 H       1  UNL1        0.0271
     37 H           5.4490    0.9881    0.0000 H       1  UNL1        0.0268
     38 H           5.0504    0.2978    0.0000 H       1  UNL1        0.0268
     39 H           8.0883   -1.4661    0.0000 H       1  UNL1        0.0271
     40 H           8.8767   -1.2084    0.0000 H       1  UNL1        0.0271
     41 H           6.9256    1.3805    0.0000 H       1  UNL1        0.0268
     42 H           6.1285    1.3805    0.0000 H       1  UNL1        0.0268
     43 H           5.2478   -3.1397    0.0000 H       1  UNL1        0.0269
     44 H           6.0460   -3.1366    0.0000 H       1  UNL1        0.0269
     45 H           9.3838   -0.5092    0.0000 H       1  UNL1        0.0269
     46 H           9.3838    0.3202    0.0000 H       1  UNL1        0.0269
     47 H           6.6949   -2.2591    0.0000 H       1  UNL1        0.0235
     48 H           7.5684   -2.3355    0.0000 H       1  UNL1        0.0235
     49 H           7.6448   -1.4620    0.0000 H       1  UNL1        0.0235
     50 H           4.2324   -0.0706    0.0000 H       1  UNL1        0.0275
     51 H           3.4343   -0.0552    0.0000 H       1  UNL1        0.0275
     52 H           7.1526   -1.7463    0.0000 H       1  UNL1        0.0235
     53 H           7.9473   -2.1167    0.0000 H       1  UNL1        0.0235
     54 H           8.3178   -1.3220    0.0000 H       1  UNL1        0.0235
     55 H           5.3787   -0.1061    0.0000 H       1  UNL1        0.0235
     56 H           4.7635    0.5186    0.0000 H       1  UNL1        0.0235
     57 H           4.1388   -0.0966    0.0000 H       1  UNL1        0.0235
     58 H           2.6718   -0.4799    0.0000 H       1  UNL1        0.0342
     59 H           2.2647   -1.1666    0.0000 H       1  UNL1        0.0342
     60 H           9.6992    2.0531    0.0000 H       1  UNL1        0.0309
     61 H           9.7006    2.8828    0.0000 H       1  UNL1        0.0309
     62 H           3.7752   -3.8688    0.0000 H       1  UNL1        0.0239
     63 H           4.6230   -4.0925    0.0000 H       1  UNL1        0.0239
     64 H           2.7728   -3.2527    0.0000 H       1  UNL1        0.0239
     65 H           3.0030   -4.0987    0.0000 H       1  UNL1        0.0239
     66 H           3.8490   -3.8685    0.0000 H       1  UNL1        0.0239
     67 H           4.8466   -3.2447    0.0000 H       1  UNL1        0.0239
     68 H           9.0927    0.5706    0.0000 H       1  UNL1        0.0268
     69 H           9.9589    0.7063    0.0000 H       1  UNL1        0.0268
     70 H           9.8233    1.5725    0.0000 H       1  UNL1        0.0268
     71 H           9.1902    3.5879    0.0000 H       1  UNL1        0.0379
     72 H           8.4016    3.8456    0.0000 H       1  UNL1        0.0379
@<TRIPOS>BOND
     1     1    21    1
     2     1    30    1
     3     2    24    2
     4     3    30    2
     5     4     5    1
     6     4     6    1
     7     4    11    1
     8     4    17    1
     9     5     7    1
    10     5    13    1
    11     5    20    1
    12     6     8    1
    13     6    12    1
    14     6    31    1
    15     7    10    1
    16     7    14    1
    17     7    32    1
    18     8     9    1
    19     8    18    1
    20     8    22    1
    21     9    15    1
    22     9    19    1
    23     9    33    1
    24    10    16    1
    25    10    21    1
    26    10    34    1
    27    11    15    1
    28    11    35    1
    29    11    36    1
    30    12    14    1
    31    12    37    1
    32    12    38    1
    33    13    16    1
    34    13    39    1
    35    13    40    1
    36    14    41    1
    37    14    42    1
    38    15    43    1
    39    15    44    1
    40    16    45    1
    41    16    46    1
    42    17    47    1
    43    17    48    1
    44    17    49    1
    45    18    23    1
    46    18    50    1
    47    18    51    1
    48    19    24    1
    49    19    26    1
    50    19    27    1
    51    20    52    1
    52    20    53    1
    53    20    54    1
    54    21    25    1
    55    21    28    1
    56    22    55    1
    57    22    56    1
    58    22    57    1
    59    23    24    1
    60    23    58    1
    61    23    59    1
    62    25    29    1
    63    25    60    1
    64    25    61    1
    65    26    64    1
    66    26    65    1
    67    26    66    1
    68    27    62    1
    69    27    63    1
    70    27    67    1
    71    28    68    1
    72    28    69    1
    73    28    70    1
    74    29    30    1
    75    29    71    1
    76    29    72    1
