@<TRIPOS>MOLECULE
IMPHY010501
 90 96 0 0 0
SMALL
GASTEIGER

@<TRIPOS>ATOM
      1 O           9.9650    0.8592    0.0000 O.3     1  UNL1       -0.3585
      2 O           7.8363    2.8510    0.0000 O.3     1  UNL1       -0.4581
      3 O           9.5407   -1.2360    0.0000 O.3     1  UNL1       -0.3888
      4 O          11.2842   -0.2561    0.0000 O.3     1  UNL1       -0.3858
      5 O          10.5045    3.2612    0.0000 O.3     1  UNL1       -0.4460
      6 O          11.9455    2.1024    0.0000 O.3     1  UNL1       -0.4659
      7 O          11.9255    0.3705    0.0000 O.2     1  UNL1       -0.2475
      8 O           8.7754    4.3421    0.0000 O.2     1  UNL1       -0.2466
      9 O           6.8671   -2.8814    0.0000 O.2     1  UNL1       -0.4576
     10 O           5.0597   -1.8286    0.0000 O.2     1  UNL1       -0.2885
     11 O           9.6975    4.7938    0.0000 O.2     1  UNL1       -0.2449
     12 O           5.1350   -2.8814    0.0000 O.3     1  UNL1       -0.3313
     13 O           6.8671   -4.8814    0.0000 O.3     1  UNL1       -0.3829
     14 O           5.1350   -5.8814    0.0000 O.3     1  UNL1       -0.3864
     15 O           3.4030   -4.8814    0.0000 O.3     1  UNL1       -0.3865
     16 O           2.5369   -3.3814    0.0000 O.3     1  UNL1       -0.3924
     17 C           8.7037    1.2739    0.0000 C.3     1  UNL1        0.0471
     18 C           8.6921    0.2739    0.0000 C.3     1  UNL1        0.0084
     19 C           9.5754    1.7638    0.0000 C.3     1  UNL1        0.0603
     20 C           7.7920   -0.2504    0.0000 C.3     1  UNL1       -0.0007
     21 C           7.8160    1.8188    0.0000 C.3     1  UNL1        0.1120
     22 C          10.4356    1.2538    0.0000 C.3     1  UNL1        0.2007
     23 C           6.8920    0.2739    0.0000 C.3     1  UNL1       -0.0187
     24 C           9.5523   -0.2361    0.0000 C.3     1  UNL1        0.0886
     25 C           9.1651    0.8685    0.0000 C.3     1  UNL1        0.0591
     26 C          10.4241    0.2539    0.0000 C.3     1  UNL1        0.1210
     27 C           6.9040    1.3155    0.0000 C.3     1  UNL1       -0.0108
     28 C           9.6196    2.7953    0.0000 C.3     1  UNL1        0.2059
     29 C           5.9421   -0.2504    0.0000 C.3     1  UNL1        0.0261
     30 C           8.4319   -1.0189    0.0000 C.3     1  UNL1       -0.0553
     31 C           7.8046   -1.3353    0.0000 C.2     1  UNL1       -0.0321
     32 C          11.4355    1.2423    0.0000 C.2     1  UNL1        0.3423
     33 C           8.7442    3.3425    0.0000 C.2     1  UNL1        0.3491
     34 C           5.9295   -1.3353    0.0000 C.2     1  UNL1        0.2002
     35 C           6.8671   -1.8814    0.0000 C.2     1  UNL1        0.1631
     36 C           5.0839    0.2629    0.0000 C.3     1  UNL1       -0.0550
     37 C          10.5434    4.2604    0.0000 C.2     1  UNL1        0.3400
     38 C          12.9455    2.0909    0.0000 C.3     1  UNL1        0.0818
     39 C           6.0010   -3.3814    0.0000 C.3     1  UNL1        0.2309
     40 C          11.4283    4.7263    0.0000 C.ar    1  UNL1        0.0590
     41 C           6.0010   -4.3814    0.0000 C.3     1  UNL1        0.1454
     42 C           5.1350   -4.8814    0.0000 C.3     1  UNL1        0.1152
     43 C           4.2690   -3.3814    0.0000 C.3     1  UNL1        0.1140
     44 C           4.2690   -4.3814    0.0000 C.3     1  UNL1        0.1120
     45 C          12.2742    4.1929    0.0000 C.ar    1  UNL1       -0.0478
     46 C          11.4672    5.7255    0.0000 C.ar    1  UNL1       -0.0478
     47 C           3.4030   -2.8814    0.0000 C.3     1  UNL1        0.0731
     48 C          13.1590    4.6588    0.0000 C.ar    1  UNL1       -0.0610
     49 C          12.3521    6.1914    0.0000 C.ar    1  UNL1       -0.0610
     50 C          13.1980    5.6580    0.0000 C.ar    1  UNL1       -0.0617
     51 H           8.6823   -0.5760    0.0000 H       1  UNL1        0.0342
     52 H           9.1590    2.5048    0.0000 H       1  UNL1        0.0384
     53 H           7.0883    2.2581    0.0000 H       1  UNL1        0.0740
     54 H           6.1625    0.7102    0.0000 H       1  UNL1        0.0317
     55 H          10.0856   -0.5522    0.0000 H       1  UNL1        0.0623
     56 H           8.6407    0.5377    0.0000 H       1  UNL1        0.0567
     57 H           9.3338    0.2719    0.0000 H       1  UNL1        0.0567
     58 H          10.9645    0.5577    0.0000 H       1  UNL1        0.0654
     59 H           6.7017    1.9016    0.0000 H       1  UNL1        0.0304
     60 H           6.2920    1.2165    0.0000 H       1  UNL1        0.0304
     61 H           9.6426    3.4148    0.0000 H       1  UNL1        0.0857
     62 H           5.4010   -0.5531    0.0000 H       1  UNL1        0.0382
     63 H           7.9554   -1.4156    0.0000 H       1  UNL1        0.0238
     64 H           8.8286   -1.4954    0.0000 H       1  UNL1        0.0238
     65 H           8.9084   -0.6222    0.0000 H       1  UNL1        0.0238
     66 H           8.3439   -1.6411    0.0000 H       1  UNL1        0.0615
     67 H          10.0741   -1.5522    0.0000 H       1  UNL1        0.2099
     68 H          11.2771   -0.8760    0.0000 H       1  UNL1        0.2100
     69 H           5.4021    0.7950    0.0000 H       1  UNL1        0.0237
     70 H           4.5518    0.5812    0.0000 H       1  UNL1        0.0237
     71 H           4.7656   -0.2692    0.0000 H       1  UNL1        0.0237
     72 H          12.9383    1.4709    0.0000 H       1  UNL1        0.0661
     73 H          13.5654    2.0837    0.0000 H       1  UNL1        0.0661
     74 H          12.9526    2.7109    0.0000 H       1  UNL1        0.0661
     75 H           6.0010   -2.7614    0.0000 H       1  UNL1        0.1084
     76 H           6.0010   -5.0014    0.0000 H       1  UNL1        0.0683
     77 H           4.5981   -5.1914    0.0000 H       1  UNL1        0.0648
     78 H           4.2690   -2.7614    0.0000 H       1  UNL1        0.0647
     79 H           3.7320   -4.0714    0.0000 H       1  UNL1        0.0647
     80 H          12.2500    3.5734    0.0000 H       1  UNL1        0.0626
     81 H          10.9428    6.0562    0.0000 H       1  UNL1        0.0626
     82 H           6.8671   -5.5014    0.0000 H       1  UNL1        0.2102
     83 H           3.8015   -2.4065    0.0000 H       1  UNL1        0.0584
     84 H           3.0044   -2.4065    0.0000 H       1  UNL1        0.0584
     85 H          13.6835    4.3281    0.0000 H       1  UNL1        0.0618
     86 H          12.3762    6.8109    0.0000 H       1  UNL1        0.0618
     87 H           4.5981   -6.1914    0.0000 H       1  UNL1        0.2100
     88 H           3.4030   -5.5014    0.0000 H       1  UNL1        0.2100
     89 H          13.7466    5.9469    0.0000 H       1  UNL1        0.0618
     90 H           2.0000   -3.0714    0.0000 H       1  UNL1        0.2095
@<TRIPOS>BOND
     1     1    22    1
     2     1    25    1
     3     2    21    1
     4     2    33    1
     5    24     3    1
     6     3    67    1
     7    26     4    1
     8     4    68    1
     9    28     5    1
    10     5    37    1
    11     6    32    1
    12     6    38    1
    13     7    32    2
    14     8    33    2
    15     9    35    1
    16    39     9    1
    17    10    34    2
    18    11    37    2
    19    12    39    1
    20    12    43    1
    21    41    13    1
    22    13    82    1
    23    42    14    1
    24    14    87    1
    25    44    15    1
    26    15    88    1
    27    16    47    1
    28    16    90    1
    29    17    18    1
    30    17    19    1
    31    17    21    1
    32    17    25    1
    33    18    20    1
    34    18    24    1
    35    18    51    1
    36    19    22    1
    37    19    28    1
    38    19    52    1
    39    20    23    1
    40    20    30    1
    41    20    31    1
    42    21    27    1
    43    21    53    1
    44    22    26    1
    45    22    32    1
    46    23    27    1
    47    23    29    1
    48    23    54    1
    49    24    26    1
    50    24    55    1
    51    25    56    1
    52    25    57    1
    53    26    58    1
    54    27    59    1
    55    27    60    1
    56    28    33    1
    57    28    61    1
    58    29    34    1
    59    29    36    1
    60    29    62    1
    61    30    63    1
    62    30    64    1
    63    30    65    1
    64    31    35    2
    65    31    66    1
    66    34    35    1
    67    36    69    1
    68    36    70    1
    69    36    71    1
    70    37    40    1
    71    38    72    1
    72    38    73    1
    73    38    74    1
    74    39    41    1
    75    39    75    1
    76    40    45   ar
    77    40    46   ar
    78    41    42    1
    79    41    76    1
    80    42    44    1
    81    42    77    1
    82    43    44    1
    83    43    47    1
    84    43    78    1
    85    44    79    1
    86    45    48   ar
    87    45    80    1
    88    46    49   ar
    89    46    81    1
    90    47    83    1
    91    47    84    1
    92    48    50   ar
    93    48    85    1
    94    49    50   ar
    95    49    86    1
    96    50    89    1
