@<TRIPOS>MOLECULE
IMPHY010491
 85 91 0 0 0
SMALL
GASTEIGER

@<TRIPOS>ATOM
      1 O           7.5289   -1.7382    0.0000 O.3     1  UNL1       -0.4483
      2 O           7.8274   -1.2991    0.0000 O.3     1  UNL1       -0.4885
      3 O           5.9765    0.0272    0.0000 O.3     1  UNL1       -0.4913
      4 O           9.5481   -1.3363    0.0000 O.3     1  UNL1       -0.4914
      5 O           2.7289    1.8935    0.0000 O.3     1  UNL1       -0.4524
      6 O           2.5035    3.9263    0.0000 O.3     1  UNL1       -0.5033
      7 N           4.1925   -4.0212    0.0000 N.3     1  UNL1       -0.2978
      8 N           7.6574    2.9382    0.0000 N.3     1  UNL1       -0.2978
      9 C           4.2005   -2.9796    0.0000 C.3     1  UNL1        0.0398
     10 C           7.2080    1.9925    0.0000 C.3     1  UNL1        0.0397
     11 C           5.1105   -2.4728    0.0000 C.ar    1  UNL1       -0.0196
     12 C           5.9765   -2.9728    0.0000 C.ar    1  UNL1        0.0047
     13 C           5.0946   -4.5420    0.0000 C.3     1  UNL1        0.0033
     14 C           7.7657    1.1561    0.0000 C.ar    1  UNL1       -0.0231
     15 C           5.9926   -4.0143    0.0000 C.3     1  UNL1       -0.0109
     16 C           8.7018    3.0138    0.0000 C.3     1  UNL1        0.0032
     17 C           8.8116    1.2076    0.0000 C.ar    1  UNL1       -0.0378
     18 C           3.2911   -2.5512    0.0000 C.3     1  UNL1       -0.0079
     19 C           9.2828    2.1427    0.0000 C.3     1  UNL1       -0.0144
     20 C           6.4064    2.5990    0.0000 C.3     1  UNL1       -0.0078
     21 C           6.8426   -2.4728    0.0000 C.ar    1  UNL1        0.1772
     22 C           8.0176    0.1829    0.0000 C.ar    1  UNL1       -0.0107
     23 C           5.1105   -1.4728    0.0000 C.ar    1  UNL1       -0.0111
     24 C           3.3246   -4.5179    0.0000 C.3     1  UNL1       -0.0122
     25 C           7.9356   -0.8190    0.0000 C.ar    1  UNL1        0.1703
     26 C           9.2944    0.3380    0.0000 C.ar    1  UNL1       -0.0128
     27 C           7.0930    3.7637    0.0000 C.3     1  UNL1       -0.0122
     28 C           2.5731   -1.8477    0.0000 C.ar    1  UNL1       -0.0453
     29 C           6.8426   -1.4728    0.0000 C.ar    1  UNL1        0.2044
     30 C           5.4499    2.9084    0.0000 C.ar    1  UNL1       -0.0419
     31 C           5.9765   -0.9728    0.0000 C.ar    1  UNL1        0.1655
     32 C           8.8998   -0.5749    0.0000 C.ar    1  UNL1        0.1624
     33 C           2.7612   -0.8647    0.0000 C.ar    1  UNL1       -0.0550
     34 C           2.1262   -0.9473    0.0000 C.ar    1  UNL1       -0.0550
     35 C           4.4449    2.8862    0.0000 C.ar    1  UNL1       -0.0124
     36 C           5.1565    3.8638    0.0000 C.ar    1  UNL1       -0.0548
     37 C           3.5030    2.5349    0.0000 C.ar    1  UNL1        0.1698
     38 C           2.6356    0.1282    0.0000 C.ar    1  UNL1       -0.0191
     39 C           2.0000    0.0500    0.0000 C.ar    1  UNL1       -0.0191
     40 C           2.2087    1.0334    0.0000 C.ar    1  UNL1        0.1286
     41 C           4.2011    4.1571    0.0000 C.ar    1  UNL1       -0.0162
     42 C           3.4220    3.5310    0.0000 C.ar    1  UNL1        0.1591
     43 C           8.4702   -2.0652    0.0000 C.3     1  UNL1        0.0791
     44 C           5.1105    0.5272    0.0000 C.3     1  UNL1        0.0790
     45 C          10.5316   -1.1556    0.0000 C.3     1  UNL1        0.0790
     46 H           3.4810   -3.4321    0.0000 H       1  UNL1        0.0515
     47 H           6.5893    1.4096    0.0000 H       1  UNL1        0.0515
     48 H           4.6973   -5.0180    0.0000 H       1  UNL1        0.0430
     49 H           5.4955   -5.0149    0.0000 H       1  UNL1        0.0430
     50 H           6.2106   -4.5947    0.0000 H       1  UNL1        0.0327
     51 H           6.6018   -3.8988    0.0000 H       1  UNL1        0.0327
     52 H           9.2689    3.2645    0.0000 H       1  UNL1        0.0430
     53 H           8.5519    3.6154    0.0000 H       1  UNL1        0.0430
     54 H           2.7162   -2.7833    0.0000 H       1  UNL1        0.0332
     55 H           3.6452   -2.0422    0.0000 H       1  UNL1        0.0332
     56 H           9.7805    1.7730    0.0000 H       1  UNL1        0.0326
     57 H           9.7321    2.5698    0.0000 H       1  UNL1        0.0326
     58 H           6.9471    2.9023    0.0000 H       1  UNL1        0.0332
     59 H           6.1199    2.0491    0.0000 H       1  UNL1        0.0332
     60 H           8.6353    0.2361    0.0000 H       1  UNL1        0.0659
     61 H           4.5736   -1.1628    0.0000 H       1  UNL1        0.0659
     62 H           3.0166   -3.9798    0.0000 H       1  UNL1        0.0391
     63 H           2.7864   -4.8258    0.0000 H       1  UNL1        0.0391
     64 H           3.6325   -5.0560    0.0000 H       1  UNL1        0.0391
     65 H           9.9137    0.3687    0.0000 H       1  UNL1        0.0658
     66 H           7.6048    4.1136    0.0000 H       1  UNL1        0.0391
     67 H           6.7431    4.2755    0.0000 H       1  UNL1        0.0391
     68 H           6.5812    3.4138    0.0000 H       1  UNL1        0.0391
     69 H           3.3809   -0.8843    0.0000 H       1  UNL1        0.0621
     70 H           1.5326   -1.1265    0.0000 H       1  UNL1        0.0621
     71 H           4.3281    3.4951    0.0000 H       1  UNL1        0.0658
     72 H           5.5949    4.3022    0.0000 H       1  UNL1        0.0621
     73 H           3.2309    0.3015    0.0000 H       1  UNL1        0.0654
     74 H           1.3805    0.0758    0.0000 H       1  UNL1        0.0654
     75 H           4.0843    4.7660    0.0000 H       1  UNL1        0.0655
     76 H           7.9952   -2.4637    0.0000 H       1  UNL1        0.0660
     77 H           8.8687   -2.5401    0.0000 H       1  UNL1        0.0660
     78 H           8.9451   -1.6666    0.0000 H       1  UNL1        0.0660
     79 H           5.4205    1.0642    0.0000 H       1  UNL1        0.0660
     80 H           4.5736    0.8372    0.0000 H       1  UNL1        0.0660
     81 H           4.8005   -0.0097    0.0000 H       1  UNL1        0.0660
     82 H          10.6437   -1.7653    0.0000 H       1  UNL1        0.0660
     83 H          11.1414   -1.0435    0.0000 H       1  UNL1        0.0660
     84 H          10.4196   -0.5458    0.0000 H       1  UNL1        0.0660
     85 H           2.4310    4.5420    0.0000 H       1  UNL1        0.2923
@<TRIPOS>BOND
     1     1    21    1
     2     1    25    1
     3     2    29    1
     4     2    43    1
     5     3    31    1
     6     3    44    1
     7     4    32    1
     8     4    45    1
     9     5    37    1
    10     5    40    1
    11     6    42    1
    12     6    85    1
    13     7     9    1
    14     7    13    1
    15     7    24    1
    16     8    10    1
    17     8    16    1
    18     8    27    1
    19     9    11    1
    20     9    18    1
    21     9    46    1
    22    10    14    1
    23    10    20    1
    24    10    47    1
    25    11    12   ar
    26    11    23   ar
    27    12    15    1
    28    12    21   ar
    29    13    15    1
    30    13    48    1
    31    13    49    1
    32    14    17   ar
    33    14    22   ar
    34    15    50    1
    35    15    51    1
    36    16    19    1
    37    16    52    1
    38    16    53    1
    39    17    19    1
    40    17    26   ar
    41    18    28    1
    42    18    54    1
    43    18    55    1
    44    19    56    1
    45    19    57    1
    46    20    30    1
    47    20    58    1
    48    20    59    1
    49    21    29   ar
    50    22    25   ar
    51    22    60    1
    52    23    31   ar
    53    23    61    1
    54    24    62    1
    55    24    63    1
    56    24    64    1
    57    25    32   ar
    58    26    32   ar
    59    26    65    1
    60    27    66    1
    61    27    67    1
    62    27    68    1
    63    28    33   ar
    64    28    34   ar
    65    29    31   ar
    66    30    35   ar
    67    30    36   ar
    68    33    38   ar
    69    33    69    1
    70    34    39   ar
    71    34    70    1
    72    35    37   ar
    73    35    71    1
    74    36    41   ar
    75    36    72    1
    76    37    42   ar
    77    38    40   ar
    78    38    73    1
    79    39    40   ar
    80    39    74    1
    81    41    42   ar
    82    41    75    1
    83    43    76    1
    84    43    77    1
    85    43    78    1
    86    44    79    1
    87    44    80    1
    88    44    81    1
    89    45    82    1
    90    45    83    1
    91    45    84    1
