@<TRIPOS>MOLECULE
IMPHY007465
 47 48 0 0 0
SMALL
GASTEIGER

@<TRIPOS>ATOM
      1 O           3.7320   -0.3100    0.0000 O.3     1  UNL1       -0.4941
      2 O           5.4641   -3.3100    0.0000 O.3     1  UNL1       -0.5064
      3 O           5.4641    2.6900    0.0000 O.2     1  UNL1       -0.2873
      4 O           9.7942    4.1900    0.0000 O.3     1  UNL1       -0.5068
      5 C           4.5981   -1.8100    0.0000 C.ar    1  UNL1        0.0399
      6 C           3.7320   -2.3100    0.0000 C.3     1  UNL1       -0.0023
      7 C           4.5981   -0.8100    0.0000 C.ar    1  UNL1        0.1341
      8 C           5.4641   -0.3100    0.0000 C.ar    1  UNL1        0.0173
      9 C           5.4641   -2.3100    0.0000 C.ar    1  UNL1        0.1238
     10 C           3.7320   -3.3100    0.0000 C.2     1  UNL1       -0.0807
     11 C           6.3301   -0.8100    0.0000 C.ar    1  UNL1       -0.0476
     12 C           6.3301   -1.8100    0.0000 C.ar    1  UNL1       -0.0191
     13 C           2.8660   -3.8100    0.0000 C.2     1  UNL1       -0.0793
     14 C           5.4641    0.6900    0.0000 C.2     1  UNL1       -0.0475
     15 C           6.3301    1.1900    0.0000 C.2     1  UNL1       -0.0137
     16 C           2.8660   -4.8100    0.0000 C.3     1  UNL1       -0.0440
     17 C           2.0000   -3.3100    0.0000 C.3     1  UNL1       -0.0440
     18 C           6.3301    2.1900    0.0000 C.2     1  UNL1        0.1861
     19 C           7.1962    2.6900    0.0000 C.ar    1  UNL1        0.0219
     20 C           2.8660   -0.8100    0.0000 C.3     1  UNL1        0.0788
     21 C           8.0622    2.1900    0.0000 C.ar    1  UNL1       -0.0475
     22 C           7.1962    3.6900    0.0000 C.ar    1  UNL1       -0.0475
     23 C           8.9282    2.6900    0.0000 C.ar    1  UNL1       -0.0195
     24 C           8.0622    4.1900    0.0000 C.ar    1  UNL1       -0.0195
     25 C           8.9282    3.6900    0.0000 C.ar    1  UNL1        0.1169
     26 H           3.5200   -1.7274    0.0000 H       1  UNL1        0.0358
     27 H           3.1215   -2.4177    0.0000 H       1  UNL1        0.0358
     28 H           4.2690   -3.6200    0.0000 H       1  UNL1        0.0575
     29 H           6.8671   -0.5000    0.0000 H       1  UNL1        0.0626
     30 H           6.8671   -2.1200    0.0000 H       1  UNL1        0.0654
     31 H           4.9272    1.0000    0.0000 H       1  UNL1        0.0626
     32 H           6.8671    0.8800    0.0000 H       1  UNL1        0.0656
     33 H           2.2460   -4.8100    0.0000 H       1  UNL1        0.0274
     34 H           2.3100   -2.7731    0.0000 H       1  UNL1        0.0274
     35 H           1.4631   -3.0000    0.0000 H       1  UNL1        0.0274
     36 H           1.6900   -3.8469    0.0000 H       1  UNL1        0.0274
     37 H           2.8660   -5.4300    0.0000 H       1  UNL1        0.0274
     38 H           3.4860   -4.8100    0.0000 H       1  UNL1        0.0274
     39 H           6.0010   -3.6200    0.0000 H       1  UNL1        0.2921
     40 H           2.5560   -0.2731    0.0000 H       1  UNL1        0.0660
     41 H           2.3291   -1.1200    0.0000 H       1  UNL1        0.0660
     42 H           3.1760   -1.3469    0.0000 H       1  UNL1        0.0660
     43 H           8.0622    1.5700    0.0000 H       1  UNL1        0.0626
     44 H           6.6592    4.0000    0.0000 H       1  UNL1        0.0626
     45 H           9.4651    2.3800    0.0000 H       1  UNL1        0.0654
     46 H           8.0622    4.8100    0.0000 H       1  UNL1        0.0654
     47 H           9.7942    4.8100    0.0000 H       1  UNL1        0.2921
@<TRIPOS>BOND
     1     1     7    1
     2     1    20    1
     3     2     9    1
     4     2    39    1
     5     3    18    2
     6     4    25    1
     7     4    47    1
     8     5     6    1
     9     5     7   ar
    10     5     9   ar
    11     6    10    1
    12     6    26    1
    13     6    27    1
    14     7     8   ar
    15     8    11   ar
    16     8    14    1
    17     9    12   ar
    18    10    13    2
    19    10    28    1
    20    11    12   ar
    21    11    29    1
    22    12    30    1
    23    13    16    1
    24    13    17    1
    25    14    15    2
    26    14    31    1
    27    15    18    1
    28    15    32    1
    29    16    33    1
    30    16    37    1
    31    16    38    1
    32    17    34    1
    33    17    35    1
    34    17    36    1
    35    18    19    1
    36    19    21   ar
    37    19    22   ar
    38    20    40    1
    39    20    41    1
    40    20    42    1
    41    21    23   ar
    42    21    43    1
    43    22    24   ar
    44    22    44    1
    45    23    25   ar
    46    23    45    1
    47    24    25   ar
    48    24    46    1
