@<TRIPOS>MOLECULE
IMPHY004514
 83 89 0 0 0
SMALL
GASTEIGER

@<TRIPOS>ATOM
      1 O           8.4196    1.8666    0.0000 O.3     1  UNL1       -0.4519
      2 O           8.4096    2.8496    0.0000 O.3     1  UNL1       -0.4885
      3 O          10.1417    3.8496    0.0000 O.3     1  UNL1       -0.4913
      4 O           6.1202   -2.2474    0.0000 O.2     1  UNL1       -0.4803
      5 O           4.6827   -3.6510    0.0000 O.2     1  UNL1       -0.4913
      6 O           5.6407   -0.3057    0.0000 O.2     1  UNL1       -0.2832
      7 N          11.0236   -0.7197    0.0000 N.3     1  UNL1       -0.2977
      8 N           2.7456    0.5547    0.0000 N.pl3   1  UNL1       -0.3460
      9 C          10.1256   -0.1919    0.0000 C.3     1  UNL1        0.0432
     10 C          10.1417    0.8496    0.0000 C.ar    1  UNL1        0.0193
     11 C          11.9257   -0.1988    0.0000 C.3     1  UNL1        0.0032
     12 C          11.9177    0.8428    0.0000 C.3     1  UNL1       -0.0143
     13 C          11.0077    1.3496    0.0000 C.ar    1  UNL1       -0.0343
     14 C          10.1059   -1.1917    0.0000 C.3     1  UNL1       -0.0078
     15 C           9.2756    1.3496    0.0000 C.ar    1  UNL1        0.1784
     16 C          11.0198   -1.7196    0.0000 C.3     1  UNL1       -0.0122
     17 C          11.0077    2.3496    0.0000 C.ar    1  UNL1       -0.0125
     18 C           9.2302   -1.6746    0.0000 C.ar    1  UNL1       -0.0455
     19 C           9.2756    2.3496    0.0000 C.ar    1  UNL1        0.2045
     20 C          10.1417    2.8496    0.0000 C.ar    1  UNL1        0.1655
     21 C           9.2105   -2.6744    0.0000 C.ar    1  UNL1       -0.0581
     22 C           8.3725   -1.1475    0.0000 C.ar    1  UNL1       -0.0581
     23 C           3.7195    0.2498    0.0000 C.2     1  UNL1        0.0195
     24 C           7.4788   -2.6403    0.0000 C.ar    1  UNL1       -0.0104
     25 C           3.9592   -0.7210    0.0000 C.2     1  UNL1        0.0458
     26 C           8.3348   -3.1572    0.0000 C.ar    1  UNL1       -0.0551
     27 C           7.4909   -1.6336    0.0000 C.ar    1  UNL1       -0.0551
     28 C           3.2188   -1.4165    0.0000 C.2     1  UNL1       -0.0299
     29 C           7.3528    1.6621    0.0000 C.ar    1  UNL1        0.1286
     30 C           2.2382   -1.1342    0.0000 C.3     1  UNL1       -0.0113
     31 C           4.4403    0.9429    0.0000 C.3     1  UNL1        0.0111
     32 C           2.0000   -0.1419    0.0000 C.3     1  UNL1        0.0129
     33 C           5.4112    1.1826    0.0000 C.ar    1  UNL1       -0.0416
     34 C           6.6031   -3.1231    0.0000 C.3     1  UNL1        0.1150
     35 C           4.9198   -0.9988    0.0000 C.2     1  UNL1        0.2327
     36 C           5.1596   -1.9696    0.0000 C.2     1  UNL1        0.2098
     37 C           3.4586   -2.4036    0.0000 C.2     1  UNL1       -0.0122
     38 C           6.6598    2.3830    0.0000 C.ar    1  UNL1       -0.0191
     39 C           7.0807    0.6929    0.0000 C.ar    1  UNL1       -0.0191
     40 C           5.6890    2.1433    0.0000 C.ar    1  UNL1       -0.0547
     41 C           6.1033    0.4515    0.0000 C.ar    1  UNL1       -0.0547
     42 C           4.4355   -2.6821    0.0000 C.2     1  UNL1        0.1657
     43 C           8.4096    3.8496    0.0000 C.3     1  UNL1        0.0791
     44 C          11.0077    4.3496    0.0000 C.3     1  UNL1        0.0790
     45 C           3.9672   -4.3496    0.0000 C.3     1  UNL1        0.0790
     46 H           9.2757   -0.1770    0.0000 H       1  UNL1        0.0516
     47 H          12.1393   -0.7809    0.0000 H       1  UNL1        0.0430
     48 H          12.5357   -0.0880    0.0000 H       1  UNL1        0.0430
     49 H          12.5293    0.7414    0.0000 H       1  UNL1        0.0326
     50 H          12.1222    1.4280    0.0000 H       1  UNL1        0.0326
     51 H          10.3064   -1.7784    0.0000 H       1  UNL1        0.0332
     52 H          10.7185   -1.0961    0.0000 H       1  UNL1        0.0332
     53 H          10.3998   -1.7173    0.0000 H       1  UNL1        0.0391
     54 H          11.0174   -2.3396    0.0000 H       1  UNL1        0.0391
     55 H          11.6398   -1.7220    0.0000 H       1  UNL1        0.0391
     56 H          11.5446    2.6596    0.0000 H       1  UNL1        0.0658
     57 H           9.7412   -2.9949    0.0000 H       1  UNL1        0.0620
     58 H           8.3870   -0.5277    0.0000 H       1  UNL1        0.0620
     59 H           8.3226   -3.7771    0.0000 H       1  UNL1        0.0621
     60 H           6.9589   -1.3151    0.0000 H       1  UNL1        0.0621
     61 H           1.6194   -1.1736    0.0000 H       1  UNL1        0.0329
     62 H           2.1711   -1.7506    0.0000 H       1  UNL1        0.0329
     63 H           4.5065    1.5593    0.0000 H       1  UNL1        0.0374
     64 H           4.7397    0.3999    0.0000 H       1  UNL1        0.0374
     65 H           1.6605    0.3768    0.0000 H       1  UNL1        0.0464
     66 H           1.4308   -0.3877    0.0000 H       1  UNL1        0.0464
     67 H           2.6079    1.1592    0.0000 H       1  UNL1        0.1458
     68 H           6.0602   -3.4225    0.0000 H       1  UNL1        0.0748
     69 H           6.9025   -3.6660    0.0000 H       1  UNL1        0.0748
     70 H           3.0116   -2.8333    0.0000 H       1  UNL1        0.0658
     71 H           6.8320    2.9786    0.0000 H       1  UNL1        0.0654
     72 H           7.5121    0.2476    0.0000 H       1  UNL1        0.0654
     73 H           5.2593    2.5902    0.0000 H       1  UNL1        0.0622
     74 H           5.9288   -0.1434    0.0000 H       1  UNL1        0.0622
     75 H           9.0296    3.8496    0.0000 H       1  UNL1        0.0660
     76 H           8.4096    4.4696    0.0000 H       1  UNL1        0.0660
     77 H           7.7896    3.8496    0.0000 H       1  UNL1        0.0660
     78 H          11.3177    3.8127    0.0000 H       1  UNL1        0.0660
     79 H          11.5446    4.6596    0.0000 H       1  UNL1        0.0660
     80 H          10.6977    4.8865    0.0000 H       1  UNL1        0.0660
     81 H           3.5341   -3.9060    0.0000 H       1  UNL1        0.0660
     82 H           3.5236   -4.7827    0.0000 H       1  UNL1        0.0660
     83 H           4.4003   -4.7932    0.0000 H       1  UNL1        0.0660
@<TRIPOS>BOND
     1     1    15    1
     2     1    29    1
     3     2    19    1
     4     2    43    1
     5     3    20    1
     6     3    44    1
     7     4    34    1
     8     4    36    1
     9     5    42    1
    10     5    45    1
    11     6    35    2
    12     7     9    1
    13     7    11    1
    14     7    16    1
    15     8    23    1
    16     8    32    1
    17     8    67    1
    18     9    10    1
    19     9    14    1
    20     9    46    1
    21    10    13   ar
    22    10    15   ar
    23    11    12    1
    24    11    47    1
    25    11    48    1
    26    12    13    1
    27    12    49    1
    28    12    50    1
    29    13    17   ar
    30    14    18    1
    31    14    51    1
    32    14    52    1
    33    15    19   ar
    34    16    53    1
    35    16    54    1
    36    16    55    1
    37    17    20   ar
    38    17    56    1
    39    18    21   ar
    40    18    22   ar
    41    19    20   ar
    42    21    26   ar
    43    21    57    1
    44    22    27   ar
    45    22    58    1
    46    23    25    2
    47    23    31    1
    48    24    26   ar
    49    24    27   ar
    50    24    34    1
    51    25    28    1
    52    25    35    1
    53    26    59    1
    54    27    60    1
    55    28    30    1
    56    28    37    2
    57    29    38   ar
    58    29    39   ar
    59    30    32    1
    60    30    61    1
    61    30    62    1
    62    31    33    1
    63    31    63    1
    64    31    64    1
    65    32    65    1
    66    32    66    1
    67    33    40   ar
    68    33    41   ar
    69    34    68    1
    70    34    69    1
    71    35    36    1
    72    36    42    2
    73    37    42    1
    74    37    70    1
    75    38    40   ar
    76    38    71    1
    77    39    41   ar
    78    39    72    1
    79    40    73    1
    80    41    74    1
    81    43    75    1
    82    43    76    1
    83    43    77    1
    84    44    78    1
    85    44    79    1
    86    44    80    1
    87    45    81    1
    88    45    82    1
    89    45    83    1
