@<TRIPOS>MOLECULE
IMPHY016089
 41 41 0 0 0
SMALL
GASTEIGER

@<TRIPOS>ATOM
      1 O           2.0000   -3.6830    0.0000 O.2     1  UNL1       -0.2974
      2 O           4.5981    2.8170    0.0000 O.2     1  UNL1       -0.2965
      3 C           3.7320   -1.6830    0.0000 C.3     1  UNL1       -0.0309
      4 C           4.5981   -2.1830    0.0000 C.3     1  UNL1       -0.0492
      5 C           2.8660   -2.1830    0.0000 C.3     1  UNL1        0.0089
      6 C           4.5981   -3.1830    0.0000 C.3     1  UNL1       -0.0461
      7 C           3.7320   -0.6830    0.0000 C.3     1  UNL1       -0.0315
      8 C           3.7320   -3.6830    0.0000 C.3     1  UNL1        0.0058
      9 C           2.8660   -3.1830    0.0000 C.2     1  UNL1        0.1336
     10 C           4.5981   -0.1830    0.0000 C.2     1  UNL1       -0.0873
     11 C           6.3301    2.8170    0.0000 C.3     1  UNL1        0.0209
     12 C           5.4641    1.3170    0.0000 C.3     1  UNL1        0.0245
     13 C           4.5981    0.8170    0.0000 C.2     1  UNL1       -0.0808
     14 C           5.4641    2.3170    0.0000 C.2     1  UNL1        0.1423
     15 C           7.1962    3.3170    0.0000 C.3     1  UNL1       -0.0533
     16 C           5.8301    3.6830    0.0000 C.3     1  UNL1       -0.0533
     17 C           6.8301    1.9510    0.0000 C.3     1  UNL1       -0.0533
     18 H           4.2690   -1.3730    0.0000 H       1  UNL1        0.0308
     19 H           5.2087   -2.2907    0.0000 H       1  UNL1        0.0268
     20 H           4.8101   -1.6004    0.0000 H       1  UNL1        0.0268
     21 H           2.6540   -1.6004    0.0000 H       1  UNL1        0.0344
     22 H           2.2554   -2.2907    0.0000 H       1  UNL1        0.0344
     23 H           4.8101   -3.7656    0.0000 H       1  UNL1        0.0269
     24 H           5.2087   -3.0753    0.0000 H       1  UNL1        0.0269
     25 H           3.5200   -0.1004    0.0000 H       1  UNL1        0.0310
     26 H           3.1215   -0.7907    0.0000 H       1  UNL1        0.0310
     27 H           3.3335   -4.1580    0.0000 H       1  UNL1        0.0342
     28 H           4.1306   -4.1580    0.0000 H       1  UNL1        0.0342
     29 H           5.1350   -0.4930    0.0000 H       1  UNL1        0.0569
     30 H           5.6762    0.7344    0.0000 H       1  UNL1        0.0384
     31 H           6.0747    1.4246    0.0000 H       1  UNL1        0.0384
     32 H           4.0611    1.1270    0.0000 H       1  UNL1        0.0573
     33 H           7.5062    2.7800    0.0000 H       1  UNL1        0.0239
     34 H           7.7331    3.6270    0.0000 H       1  UNL1        0.0239
     35 H           6.8862    3.8539    0.0000 H       1  UNL1        0.0239
     36 H           6.3671    3.9930    0.0000 H       1  UNL1        0.0239
     37 H           5.5201    4.2200    0.0000 H       1  UNL1        0.0239
     38 H           5.2932    3.3730    0.0000 H       1  UNL1        0.0239
     39 H           6.2932    1.6410    0.0000 H       1  UNL1        0.0239
     40 H           7.1401    1.4140    0.0000 H       1  UNL1        0.0239
     41 H           7.3671    2.2610    0.0000 H       1  UNL1        0.0239
@<TRIPOS>BOND
     1     1     9    2
     2     2    14    2
     3     3     4    1
     4     3     5    1
     5     3     7    1
     6     3    18    1
     7     4     6    1
     8     4    19    1
     9     4    20    1
    10     5     9    1
    11     5    21    1
    12     5    22    1
    13     6     8    1
    14     6    23    1
    15     6    24    1
    16     7    10    1
    17     7    25    1
    18     7    26    1
    19     8     9    1
    20     8    27    1
    21     8    28    1
    22    10    13    2
    23    10    29    1
    24    11    14    1
    25    11    15    1
    26    11    16    1
    27    11    17    1
    28    12    13    1
    29    12    14    1
    30    12    30    1
    31    12    31    1
    32    13    32    1
    33    15    33    1
    34    15    34    1
    35    15    35    1
    36    16    36    1
    37    16    37    1
    38    16    38    1
    39    17    39    1
    40    17    40    1
    41    17    41    1
