@<TRIPOS>MOLECULE
IMPHY004856
 50 53 0 0 0
SMALL
GASTEIGER

@<TRIPOS>ATOM
      1 O           5.1350   -0.3521    0.0000 O.3     1  UNL1       -0.3313
      2 O           6.8671   -0.3521    0.0000 O.3     1  UNL1       -0.4601
      3 O           5.1350   -3.3520    0.0000 O.3     1  UNL1       -0.3864
      4 O           3.4030   -2.3521    0.0000 O.3     1  UNL1       -0.3865
      5 O           6.8671   -2.3521    0.0000 O.3     1  UNL1       -0.3829
      6 O           2.5369   -0.8521    0.0000 O.3     1  UNL1       -0.3924
      7 O           8.6158   -0.3377    0.0000 O.2     1  UNL1       -0.2864
      8 O           8.6620    3.6620    0.0000 O.2     1  UNL1       -0.2866
      9 O          10.3636   -0.3925    0.0000 O.3     1  UNL1       -0.5060
     10 C           5.1350   -2.3521    0.0000 C.3     1  UNL1        0.1152
     11 C           4.2690   -1.8520    0.0000 C.3     1  UNL1        0.1120
     12 C           6.0010   -1.8520    0.0000 C.3     1  UNL1        0.1454
     13 C           4.2690   -0.8521    0.0000 C.3     1  UNL1        0.1140
     14 C           6.0010   -0.8521    0.0000 C.3     1  UNL1        0.2308
     15 C           3.4030   -0.3521    0.0000 C.3     1  UNL1        0.0731
     16 C           6.8671    0.6479    0.0000 C.ar    1  UNL1        0.1355
     17 C           7.7671    1.1722    0.0000 C.ar    1  UNL1        0.0749
     18 C           7.7787    2.1722    0.0000 C.ar    1  UNL1        0.0366
     19 C           8.6273    0.6623    0.0000 C.2     1  UNL1        0.2015
     20 C           9.4991    1.1522    0.0000 C.ar    1  UNL1        0.0745
     21 C           5.9670    1.1722    0.0000 C.ar    1  UNL1       -0.0191
     22 C           9.5106    2.1521    0.0000 C.ar    1  UNL1        0.0368
     23 C           8.6504    2.6621    0.0000 C.2     1  UNL1        0.1947
     24 C           6.8910    2.7171    0.0000 C.ar    1  UNL1       -0.0500
     25 C           5.9790    2.2138    0.0000 C.ar    1  UNL1       -0.0576
     26 C          10.3868    0.6072    0.0000 C.ar    1  UNL1        0.1286
     27 C          10.4107    2.6764    0.0000 C.ar    1  UNL1       -0.0471
     28 C          11.3108    2.1521    0.0000 C.ar    1  UNL1       -0.0463
     29 C          11.2987    1.1106    0.0000 C.ar    1  UNL1       -0.0165
     30 C          12.1806    2.6454    0.0000 C.3     1  UNL1       -0.0396
     31 H           4.5981   -2.6620    0.0000 H       1  UNL1        0.0648
     32 H           4.2690   -2.4720    0.0000 H       1  UNL1        0.0647
     33 H           6.0010   -2.4720    0.0000 H       1  UNL1        0.0683
     34 H           4.2690   -0.2321    0.0000 H       1  UNL1        0.0647
     35 H           6.0010   -0.2321    0.0000 H       1  UNL1        0.1084
     36 H           3.8015    0.1229    0.0000 H       1  UNL1        0.0584
     37 H           3.0044    0.1229    0.0000 H       1  UNL1        0.0584
     38 H           4.5981   -3.6620    0.0000 H       1  UNL1        0.2100
     39 H           3.4030   -2.9720    0.0000 H       1  UNL1        0.2100
     40 H           6.8671   -2.9720    0.0000 H       1  UNL1        0.2102
     41 H           5.4277    0.8664    0.0000 H       1  UNL1        0.0654
     42 H           2.0000   -0.5421    0.0000 H       1  UNL1        0.2095
     43 H           6.9053    3.3370    0.0000 H       1  UNL1        0.0625
     44 H           5.4470    2.5320    0.0000 H       1  UNL1        0.0619
     45 H          10.4107    3.2964    0.0000 H       1  UNL1        0.0627
     46 H          11.8308    0.7923    0.0000 H       1  UNL1        0.0657
     47 H          12.4865    2.1061    0.0000 H       1  UNL1        0.0278
     48 H          12.7199    2.9513    0.0000 H       1  UNL1        0.0278
     49 H          11.8748    3.1848    0.0000 H       1  UNL1        0.0278
     50 H          10.8933   -0.7148    0.0000 H       1  UNL1        0.2922
@<TRIPOS>BOND
     1     1    13    1
     2     1    14    1
     3    14     2    1
     4     2    16    1
     5    10     3    1
     6     3    38    1
     7    11     4    1
     8     4    39    1
     9    12     5    1
    10     5    40    1
    11     6    15    1
    12     6    42    1
    13     7    19    2
    14     8    23    2
    15     9    26    1
    16     9    50    1
    17    10    11    1
    18    10    12    1
    19    10    31    1
    20    11    13    1
    21    11    32    1
    22    12    14    1
    23    12    33    1
    24    13    15    1
    25    13    34    1
    26    14    35    1
    27    15    36    1
    28    15    37    1
    29    16    17   ar
    30    16    21   ar
    31    17    18   ar
    32    17    19    1
    33    18    23    1
    34    18    24   ar
    35    19    20    1
    36    20    22   ar
    37    20    26   ar
    38    21    25   ar
    39    21    41    1
    40    22    23    1
    41    22    27   ar
    42    24    25   ar
    43    24    43    1
    44    25    44    1
    45    26    29   ar
    46    27    28   ar
    47    27    45    1
    48    28    29   ar
    49    28    30    1
    50    29    46    1
    51    30    47    1
    52    30    48    1
    53    30    49    1
