@<TRIPOS>MOLECULE
IMPHY010480
 94 102 0 0 0
SMALL
GASTEIGER

@<TRIPOS>ATOM
      1 O           6.3384   -4.5030    0.0000 O.3     1  UNL1       -0.4677
      2 O           4.9247   -4.4673    0.0000 O.2     1  UNL1       -0.2505
      3 N          10.0088    4.6384    0.0000 N.3     1  UNL1       -0.2979
      4 N           9.3728    1.4630    0.0000 N.ar    1  UNL1       -0.3574
      5 N           5.2263   -3.6249    0.0000 N.3     1  UNL1       -0.2974
      6 N           5.0094    0.6655    0.0000 N.ar    1  UNL1       -0.3572
      7 C          10.6323    3.8565    0.0000 C.3     1  UNL1        0.0214
      8 C          10.4098    2.8816    0.0000 C.3     1  UNL1        0.0157
      9 C          12.1601    2.4608    0.0000 C.3     1  UNL1       -0.0273
     10 C          11.6228    4.1789    0.0000 C.3     1  UNL1       -0.0247
     11 C          11.1624    2.1614    0.0000 C.3     1  UNL1       -0.0394
     12 C          12.3918    3.4763    0.0000 C.3     1  UNL1       -0.0448
     13 C          11.7131    4.1706    0.0000 C.3     1  UNL1        0.0021
     14 C           9.5088    2.4477    0.0000 C.ar    1  UNL1        0.0249
     15 C           9.0088    4.6384    0.0000 C.3     1  UNL1        0.0033
     16 C          11.8341    5.1563    0.0000 C.3     1  UNL1       -0.0516
     17 C           8.6079    2.8816    0.0000 C.ar    1  UNL1       -0.0176
     18 C           8.3854    3.8565    0.0000 C.3     1  UNL1       -0.0126
     19 C           7.9228    2.1613    0.0000 C.ar    1  UNL1        0.0032
     20 C           8.3946    1.2863    0.0000 C.ar    1  UNL1        0.0472
     21 C          12.7862    5.4621    0.0000 C.3     1  UNL1       -0.0650
     22 C           6.3078   -0.4343    0.0000 C.3     1  UNL1        0.0252
     23 C           6.7409   -2.2306    0.0000 C.3     1  UNL1       -0.0034
     24 C           7.8647    0.3967    0.0000 C.ar    1  UNL1       -0.0340
     25 C           6.8883    2.2073    0.0000 C.ar    1  UNL1       -0.0520
     26 C           5.9325   -2.8192    0.0000 C.3     1  UNL1        0.0787
     27 C           6.8295    0.4188    0.0000 C.ar    1  UNL1       -0.0366
     28 C           4.9446   -2.6637    0.0000 C.3     1  UNL1        0.0279
     29 C           6.8964   -1.2428    0.0000 C.3     1  UNL1       -0.0334
     30 C           5.3200   -0.2789    0.0000 C.ar    1  UNL1        0.0277
     31 C           6.3380    1.3302    0.0000 C.ar    1  UNL1       -0.0573
     32 C           4.3560   -1.8553    0.0000 C.3     1  UNL1       -0.0089
     33 C           6.9283   -3.2145    0.0000 C.2     1  UNL1       -0.0558
     34 C           4.5115   -0.8674    0.0000 C.ar    1  UNL1       -0.0170
     35 C           6.1914   -3.8929    0.0000 C.3     1  UNL1        0.0203
     36 C           5.6495   -3.7783    0.0000 C.2     1  UNL1        0.3120
     37 C           3.7082   -0.2818    0.0000 C.ar    1  UNL1        0.0032
     38 C           4.0153    0.6636    0.0000 C.ar    1  UNL1        0.0469
     39 C           4.2622   -3.8906    0.0000 C.3     1  UNL1       -0.0121
     40 C           7.8777   -3.5284    0.0000 C.2     1  UNL1       -0.0864
     41 C           2.6989   -0.5128    0.0000 C.ar    1  UNL1       -0.0523
     42 C           3.3343    1.4437    0.0000 C.ar    1  UNL1       -0.0378
     43 C           8.6243   -2.8631    0.0000 C.3     1  UNL1       -0.0465
     44 C           2.0000    0.2512    0.0000 C.ar    1  UNL1       -0.0611
     45 C           2.3199    1.2361    0.0000 C.ar    1  UNL1       -0.0598
     46 C           6.0553   -5.4621    0.0000 C.3     1  UNL1        0.0817
     47 H          10.8215    4.6852    0.0000 H       1  UNL1        0.0472
     48 H          10.2207    2.0529    0.0000 H       1  UNL1        0.0379
     49 H          12.3751    1.6384    0.0000 H       1  UNL1        0.0313
     50 H          11.1627    4.5944    0.0000 H       1  UNL1        0.0316
     51 H          10.6634    1.7934    0.0000 H       1  UNL1        0.0275
     52 H          11.4395    1.6068    0.0000 H       1  UNL1        0.0275
     53 H          12.9638    3.2369    0.0000 H       1  UNL1        0.0271
     54 H          12.7255    3.9988    0.0000 H       1  UNL1        0.0271
     55 H          12.3310    4.2208    0.0000 H       1  UNL1        0.0429
     56 H          11.7709    4.7879    0.0000 H       1  UNL1        0.0429
     57 H           9.1468    5.2428    0.0000 H       1  UNL1        0.0430
     58 H           8.4502    4.9074    0.0000 H       1  UNL1        0.0430
     59 H          11.7499    5.7706    0.0000 H       1  UNL1        0.0266
     60 H          11.2145    5.1800    0.0000 H       1  UNL1        0.0266
     61 H           7.9988    4.3413    0.0000 H       1  UNL1        0.0326
     62 H           7.8268    3.5875    0.0000 H       1  UNL1        0.0326
     63 H           9.8202    1.0337    0.0000 H       1  UNL1        0.1656
     64 H          12.9758    4.8718    0.0000 H       1  UNL1        0.0230
     65 H          13.3765    5.6517    0.0000 H       1  UNL1        0.0230
     66 H          12.5966    6.0524    0.0000 H       1  UNL1        0.0230
     67 H           7.5908   -2.2170    0.0000 H       1  UNL1        0.0355
     68 H           6.0477    0.1285    0.0000 H       1  UNL1        0.0412
     69 H           8.1652   -0.1455    0.0000 H       1  UNL1        0.0641
     70 H           6.4392   -3.1765    0.0000 H       1  UNL1        0.0435
     71 H           6.6004    2.7564    0.0000 H       1  UNL1        0.0624
     72 H           4.1050   -2.5316    0.0000 H       1  UNL1        0.0474
     73 H           7.4630   -1.4944    0.0000 H       1  UNL1        0.0281
     74 H           7.2861   -0.7605    0.0000 H       1  UNL1        0.0281
     75 H           3.7894   -1.6036    0.0000 H       1  UNL1        0.0329
     76 H           3.9663   -2.3375    0.0000 H       1  UNL1        0.0329
     77 H           5.7183    1.3506    0.0000 H       1  UNL1        0.0621
     78 H           5.9182   -4.4495    0.0000 H       1  UNL1        0.0473
     79 H           6.6881   -4.2639    0.0000 H       1  UNL1        0.0473
     80 H           5.3724    1.1680    0.0000 H       1  UNL1        0.1656
     81 H           4.0975   -3.2928    0.0000 H       1  UNL1        0.0391
     82 H           3.6645   -4.0553    0.0000 H       1  UNL1        0.0391
     83 H           4.4269   -4.4883    0.0000 H       1  UNL1        0.0391
     84 H           8.0035   -4.1355    0.0000 H       1  UNL1        0.0569
     85 H           2.5142   -1.1047    0.0000 H       1  UNL1        0.0624
     86 H           3.5326    2.0311    0.0000 H       1  UNL1        0.0638
     87 H           9.0368   -3.3260    0.0000 H       1  UNL1        0.0272
     88 H           9.0872   -2.4506    0.0000 H       1  UNL1        0.0272
     89 H           8.2118   -2.4002    0.0000 H       1  UNL1        0.0272
     90 H           1.3941    0.1199    0.0000 H       1  UNL1        0.0618
     91 H           1.9067    1.6984    0.0000 H       1  UNL1        0.0618
     92 H           5.4606   -5.2866    0.0000 H       1  UNL1        0.0661
     93 H           5.8798   -6.0567    0.0000 H       1  UNL1        0.0661
     94 H           6.6499   -5.6376    0.0000 H       1  UNL1        0.0661
@<TRIPOS>BOND
     1     1    36    1
     2     1    46    1
     3     2    36    2
     4     3     7    1
     5     3    13    1
     6     3    15    1
     7     4    14   ar
     8     4    20   ar
     9     4    63    1
    10     5    28    1
    11     5    35    1
    12     5    39    1
    13     6    30   ar
    14     6    38   ar
    15     6    80    1
    16     7     8    1
    17     7    10    1
    18     7    47    1
    19     8    11    1
    20     8    14    1
    21     8    48    1
    22     9    11    1
    23     9    12    1
    24     9    13    1
    25     9    49    1
    26    10    12    1
    27    10    16    1
    28    10    50    1
    29    11    51    1
    30    11    52    1
    31    12    53    1
    32    12    54    1
    33    13    55    1
    34    13    56    1
    35    14    17   ar
    36    15    18    1
    37    15    57    1
    38    15    58    1
    39    16    21    1
    40    16    59    1
    41    16    60    1
    42    17    18    1
    43    17    19   ar
    44    18    61    1
    45    18    62    1
    46    19    20   ar
    47    19    25   ar
    48    20    24   ar
    49    21    64    1
    50    21    65    1
    51    21    66    1
    52    22    27    1
    53    22    29    1
    54    22    30    1
    55    22    68    1
    56    23    26    1
    57    23    29    1
    58    23    33    1
    59    23    67    1
    60    24    27   ar
    61    24    69    1
    62    25    31   ar
    63    25    71    1
    64    26    28    1
    65    26    36    1
    66    26    70    1
    67    27    31   ar
    68    28    32    1
    69    28    72    1
    70    29    73    1
    71    29    74    1
    72    30    34   ar
    73    31    77    1
    74    32    34    1
    75    32    75    1
    76    32    76    1
    77    33    35    1
    78    33    40    2
    79    34    37   ar
    80    35    78    1
    81    35    79    1
    82    37    38   ar
    83    37    41   ar
    84    38    42   ar
    85    39    81    1
    86    39    82    1
    87    39    83    1
    88    40    43    1
    89    40    84    1
    90    41    44   ar
    91    41    85    1
    92    42    45   ar
    93    42    86    1
    94    43    87    1
    95    43    88    1
    96    43    89    1
    97    44    45   ar
    98    44    90    1
    99    45    91    1
   100    46    92    1
   101    46    93    1
   102    46    94    1
