@<TRIPOS>MOLECULE
IMPHY009438
 69 73 0 0 0
SMALL
GASTEIGER

@<TRIPOS>ATOM
      1 O           7.1640    0.7788    0.0000 O.3     1  UNL1       -0.3844
      2 O           8.8678   -0.3965    0.0000 O.3     1  UNL1       -0.3823
      3 O           8.9886    1.9946    0.0000 O.3     1  UNL1       -0.4548
      4 O           2.9755   -0.4205    0.0000 O.2     1  UNL1       -0.2918
      5 O           9.6958    3.5757    0.0000 O.2     1  UNL1       -0.2453
      6 C           6.5251   -0.4776    0.0000 C.3     1  UNL1        0.0211
      7 C           7.4714   -0.1728    0.0000 C.3     1  UNL1        0.1101
      8 C           4.7931   -1.4776    0.0000 C.3     1  UNL1       -0.0180
      9 C           5.6591   -1.9776    0.0000 C.3     1  UNL1       -0.0118
     10 C           6.5251   -1.4776    0.0000 C.2     1  UNL1       -0.0610
     11 C           5.6591    0.0224    0.0000 C.3     1  UNL1       -0.0409
     12 C           4.7931   -0.4776    0.0000 C.3     1  UNL1       -0.0476
     13 C           3.8831   -1.9844    0.0000 C.3     1  UNL1        0.0547
     14 C           8.0550   -0.9776    0.0000 C.3     1  UNL1       -0.0018
     15 C           8.2814    0.4136    0.0000 C.3     1  UNL1        0.1298
     16 C           7.4714   -1.7823    0.0000 C.2     1  UNL1       -0.0810
     17 C           5.6752   -3.0191    0.0000 C.3     1  UNL1       -0.0276
     18 C           6.1831    0.4621    0.0000 C.3     1  UNL1       -0.0531
     19 C           3.8751   -3.0260    0.0000 C.2     1  UNL1       -0.0561
     20 C           9.0914    0.9999    0.0000 C.3     1  UNL1        0.1380
     21 C           4.7771   -3.5468    0.0000 C.2     1  UNL1       -0.0830
     22 C           3.8908   -0.9844    0.0000 C.3     1  UNL1       -0.0485
     23 C           2.9562   -1.4203    0.0000 C.2     1  UNL1        0.1659
     24 C           7.6950    1.2236    0.0000 C.3     1  UNL1       -0.0298
     25 C           2.9396   -3.5757    0.0000 C.3     1  UNL1       -0.0122
     26 C          10.0043    0.5916    0.0000 C.3     1  UNL1        0.0089
     27 C           2.0084   -1.9483    0.0000 C.2     1  UNL1       -0.0220
     28 C           2.0000   -3.0332    0.0000 C.2     1  UNL1       -0.0767
     29 C          10.8143    1.1780    0.0000 C.2     1  UNL1       -0.0594
     30 C           9.7986    2.5810    0.0000 C.2     1  UNL1        0.3352
     31 C          10.7115    2.1727    0.0000 C.2     1  UNL1        0.0326
     32 C          11.7271    0.7697    0.0000 C.3     1  UNL1       -0.0429
     33 C          11.5215    2.7591    0.0000 C.3     1  UNL1       -0.0330
     34 H           5.5292   -1.0526    0.0000 H       1  UNL1        0.0319
     35 H           6.3985   -2.3969    0.0000 H       1  UNL1        0.0352
     36 H           6.0576    0.4974    0.0000 H       1  UNL1        0.0275
     37 H           5.2606    0.4974    0.0000 H       1  UNL1        0.0275
     38 H           4.5810    0.1051    0.0000 H       1  UNL1        0.0269
     39 H           4.1825   -0.5852    0.0000 H       1  UNL1        0.0269
     40 H           8.5158   -1.3923    0.0000 H       1  UNL1        0.0336
     41 H           8.5158   -0.5628    0.0000 H       1  UNL1        0.0336
     42 H           7.6640   -2.3716    0.0000 H       1  UNL1        0.0573
     43 H           5.8932   -3.5995    0.0000 H       1  UNL1        0.0313
     44 H           6.2843   -2.9036    0.0000 H       1  UNL1        0.0313
     45 H           6.7657    0.6742    0.0000 H       1  UNL1        0.0239
     46 H           5.9711    1.0447    0.0000 H       1  UNL1        0.0239
     47 H           5.6005    0.2501    0.0000 H       1  UNL1        0.0239
     48 H           8.3155    1.3470    0.0000 H       1  UNL1        0.0767
     49 H           4.7795   -4.1668    0.0000 H       1  UNL1        0.0572
     50 H           4.5108   -0.9892    0.0000 H       1  UNL1        0.0242
     51 H           3.8956   -0.3645    0.0000 H       1  UNL1        0.0242
     52 H           3.2708   -0.9797    0.0000 H       1  UNL1        0.0242
     53 H           6.6388    1.1082    0.0000 H       1  UNL1        0.2103
     54 H           8.1972    1.5872    0.0000 H       1  UNL1        0.0259
     55 H           7.3314    1.7258    0.0000 H       1  UNL1        0.0259
     56 H           7.1928    0.8600    0.0000 H       1  UNL1        0.0259
     57 H           2.5423   -4.0517    0.0000 H       1  UNL1        0.0353
     58 H           3.3406   -4.0486    0.0000 H       1  UNL1        0.0353
     59 H           9.4845   -0.3327    0.0000 H       1  UNL1        0.2104
     60 H           9.6567    0.0782    0.0000 H       1  UNL1        0.0347
     61 H          10.4495    0.1602    0.0000 H       1  UNL1        0.0347
     62 H           1.4750   -1.6321    0.0000 H       1  UNL1        0.0649
     63 H           1.4619   -3.3412    0.0000 H       1  UNL1        0.0576
     64 H          11.4740    0.2037    0.0000 H       1  UNL1        0.0275
     65 H          12.2931    0.5165    0.0000 H       1  UNL1        0.0275
     66 H          11.9803    1.3356    0.0000 H       1  UNL1        0.0275
     67 H          11.8851    2.2569    0.0000 H       1  UNL1        0.0280
     68 H          12.0237    3.1226    0.0000 H       1  UNL1        0.0280
     69 H          11.1580    3.2613    0.0000 H       1  UNL1        0.0280
@<TRIPOS>BOND
     1     7     1    1
     2     1    53    1
     3    15     2    1
     4     2    59    1
     5     3    20    1
     6     3    30    1
     7     4    23    2
     8     5    30    2
     9     6     7    1
    10     6    10    1
    11     6    11    1
    12     6    18    1
    13     7    14    1
    14     7    15    1
    15     8     9    1
    16     8    12    1
    17     8    13    1
    18     8    34    1
    19     9    10    1
    20     9    17    1
    21     9    35    1
    22    10    16    2
    23    11    12    1
    24    11    36    1
    25    11    37    1
    26    12    38    1
    27    12    39    1
    28    13    19    1
    29    13    22    1
    30    13    23    1
    31    14    16    1
    32    14    40    1
    33    14    41    1
    34    15    20    1
    35    15    24    1
    36    16    42    1
    37    17    21    1
    38    17    43    1
    39    17    44    1
    40    18    45    1
    41    18    46    1
    42    18    47    1
    43    19    21    2
    44    19    25    1
    45    20    26    1
    46    20    48    1
    47    21    49    1
    48    22    50    1
    49    22    51    1
    50    22    52    1
    51    23    27    1
    52    24    54    1
    53    24    55    1
    54    24    56    1
    55    25    28    1
    56    25    57    1
    57    25    58    1
    58    26    29    1
    59    26    60    1
    60    26    61    1
    61    27    28    2
    62    27    62    1
    63    28    63    1
    64    29    31    2
    65    29    32    1
    66    30    31    1
    67    31    33    1
    68    32    64    1
    69    32    65    1
    70    32    66    1
    71    33    67    1
    72    33    68    1
    73    33    69    1
