@<TRIPOS>MOLECULE
IMPHY001598
 38 39 0 0 0
SMALL
GASTEIGER

@<TRIPOS>ATOM
      1 O           2.5369    1.0468    0.0000 O.3     1  UNL1       -0.3871
      2 O           2.5369   -1.9532    0.0000 O.2     1  UNL1       -0.2960
      3 C           5.1350    0.5468    0.0000 C.3     1  UNL1       -0.0244
      4 C           5.1350   -0.4532    0.0000 C.3     1  UNL1       -0.0099
      5 C           6.0290    1.0815    0.0000 C.3     1  UNL1       -0.0312
      6 C           6.0290   -0.9879    0.0000 C.3     1  UNL1       -0.0439
      7 C           6.9350    0.5676    0.0000 C.3     1  UNL1       -0.0476
      8 C           4.2690    1.0468    0.0000 C.3     1  UNL1       -0.0185
      9 C           6.9350   -0.4740    0.0000 C.3     1  UNL1       -0.0518
     10 C           4.2690   -0.9532    0.0000 C.2     1  UNL1       -0.0691
     11 C           3.4030    0.5468    0.0000 C.3     1  UNL1        0.0832
     12 C           5.1350   -1.4532    0.0000 C.3     1  UNL1       -0.0558
     13 C           6.5189    1.9532    0.0000 C.3     1  UNL1       -0.0595
     14 C           5.5190    1.9416    0.0000 C.3     1  UNL1       -0.0595
     15 C           3.4030   -0.4532    0.0000 C.2     1  UNL1        0.0166
     16 C           2.5369   -0.9532    0.0000 C.2     1  UNL1        0.1484
     17 H           5.1285    1.3968    0.0000 H       1  UNL1        0.0315
     18 H           5.6244   -1.4576    0.0000 H       1  UNL1        0.0274
     19 H           6.4226   -1.4669    0.0000 H       1  UNL1        0.0274
     20 H           7.5459    0.4615    0.0000 H       1  UNL1        0.0271
     21 H           7.1441    1.1513    0.0000 H       1  UNL1        0.0271
     22 H           4.6675    1.5217    0.0000 H       1  UNL1        0.0296
     23 H           3.8705    1.5217    0.0000 H       1  UNL1        0.0296
     24 H           7.1441   -1.0577    0.0000 H       1  UNL1        0.0266
     25 H           7.5459   -0.3679    0.0000 H       1  UNL1        0.0266
     26 H           4.2690   -1.5732    0.0000 H       1  UNL1        0.0582
     27 H           3.4030    1.1668    0.0000 H       1  UNL1        0.0644
     28 H           4.5150   -1.4532    0.0000 H       1  UNL1        0.0238
     29 H           5.1350   -2.0732    0.0000 H       1  UNL1        0.0238
     30 H           5.7550   -1.4532    0.0000 H       1  UNL1        0.0238
     31 H           7.0594    1.6494    0.0000 H       1  UNL1        0.0235
     32 H           6.8227    2.4937    0.0000 H       1  UNL1        0.0235
     33 H           5.9784    2.2570    0.0000 H       1  UNL1        0.0235
     34 H           6.0523    2.2578    0.0000 H       1  UNL1        0.0235
     35 H           5.2028    2.4750    0.0000 H       1  UNL1        0.0235
     36 H           4.9857    1.6254    0.0000 H       1  UNL1        0.0235
     37 H           2.5369    1.6668    0.0000 H       1  UNL1        0.2102
     38 H           2.0000   -0.6432    0.0000 H       1  UNL1        0.1079
@<TRIPOS>BOND
     1    11     1    1
     2     1    37    1
     3     2    16    2
     4     3     4    1
     5     3     5    1
     6     3     8    1
     7     3    17    1
     8     4     6    1
     9     4    10    1
    10     4    12    1
    11     5     7    1
    12     5    13    1
    13     5    14    1
    14     6     9    1
    15     6    18    1
    16     6    19    1
    17     7     9    1
    18     7    20    1
    19     7    21    1
    20     8    11    1
    21     8    22    1
    22     8    23    1
    23     9    24    1
    24     9    25    1
    25    10    15    2
    26    10    26    1
    27    11    15    1
    28    11    27    1
    29    12    28    1
    30    12    29    1
    31    12    30    1
    32    13    31    1
    33    13    32    1
    34    13    33    1
    35    14    34    1
    36    14    35    1
    37    14    36    1
    38    15    16    1
    39    16    38    1
