@<TRIPOS>MOLECULE
IMPHY005541
 39 39 0 0 0
SMALL
GASTEIGER

@<TRIPOS>ATOM
      1 C           5.3710   -0.8711    0.0000 C.3     1  UNL1       -0.0135
      2 C           4.7162   -1.6268    0.0000 C.3     1  UNL1       -0.0259
      3 C           5.5133    0.1188    0.0000 C.2     1  UNL1       -0.0817
      4 C           5.6981   -1.8160    0.0000 C.3     1  UNL1       -0.0561
      5 C           6.3608   -1.0134    0.0000 C.3     1  UNL1       -0.0561
      6 C           2.1423   -0.8711    0.0000 C.3     1  UNL1       -0.0317
      7 C           3.7567   -1.9085    0.0000 C.2     1  UNL1       -0.0842
      8 C           2.0000    0.1188    0.0000 C.3     1  UNL1       -0.0457
      9 C           2.7972   -1.6268    0.0000 C.2     1  UNL1       -0.0765
     10 C           2.4154    1.0284    0.0000 C.3     1  UNL1       -0.0314
     11 C           4.2567    1.5690    0.0000 C.3     1  UNL1       -0.0138
     12 C           5.0979    1.0284    0.0000 C.2     1  UNL1       -0.0834
     13 C           3.2567    1.5690    0.0000 C.2     1  UNL1       -0.0729
     14 C           2.2565   -2.4681    0.0000 C.3     1  UNL1       -0.0438
     15 C           2.9749    2.5285    0.0000 C.2     1  UNL1       -0.0992
     16 H           4.6867   -2.2461    0.0000 H       1  UNL1        0.0316
     17 H           4.3810   -1.1052    0.0000 H       1  UNL1        0.0316
     18 H           6.1270    0.2070    0.0000 H       1  UNL1        0.0575
     19 H           5.1122   -2.0188    0.0000 H       1  UNL1        0.0238
     20 H           5.9009   -2.4019    0.0000 H       1  UNL1        0.0238
     21 H           6.2840   -1.6133    0.0000 H       1  UNL1        0.0238
     22 H           6.2726   -1.6271    0.0000 H       1  UNL1        0.0238
     23 H           6.9745   -1.1016    0.0000 H       1  UNL1        0.0238
     24 H           6.4491   -0.3997    0.0000 H       1  UNL1        0.0238
     25 H           1.5335   -0.7537    0.0000 H       1  UNL1        0.0310
     26 H           2.7063   -0.6135    0.0000 H       1  UNL1        0.0310
     27 H           3.7567   -2.5285    0.0000 H       1  UNL1        0.0572
     28 H           1.5513    0.5466    0.0000 H       1  UNL1        0.0271
     29 H           2.6137    0.0305    0.0000 H       1  UNL1        0.0271
     30 H           2.2692    1.6309    0.0000 H       1  UNL1        0.0310
     31 H           2.8840    0.6224    0.0000 H       1  UNL1        0.0310
     32 H           4.7440    1.9523    0.0000 H       1  UNL1        0.0352
     33 H           4.0820    0.9742    0.0000 H       1  UNL1        0.0352
     34 H           5.5665    1.4344    0.0000 H       1  UNL1        0.0572
     35 H           1.7350   -2.1329    0.0000 H       1  UNL1        0.0274
     36 H           1.9213   -2.9896    0.0000 H       1  UNL1        0.0274
     37 H           2.7781   -2.8032    0.0000 H       1  UNL1        0.0274
     38 H           3.4028    2.9772    0.0000 H       1  UNL1        0.0534
     39 H           2.3724    2.6747    0.0000 H       1  UNL1        0.0534
@<TRIPOS>BOND
     1     1     2    1
     2     1     3    1
     3     1     4    1
     4     1     5    1
     5     2     7    1
     6     2    16    1
     7     2    17    1
     8     3    12    2
     9     3    18    1
    10     4    19    1
    11     4    20    1
    12     4    21    1
    13     5    22    1
    14     5    23    1
    15     5    24    1
    16     6     8    1
    17     6     9    1
    18     6    25    1
    19     6    26    1
    20     7     9    2
    21     7    27    1
    22     8    10    1
    23     8    28    1
    24     8    29    1
    25     9    14    1
    26    10    13    1
    27    10    30    1
    28    10    31    1
    29    11    12    1
    30    11    13    1
    31    11    32    1
    32    11    33    1
    33    12    34    1
    34    13    15    2
    35    14    35    1
    36    14    36    1
    37    14    37    1
    38    15    38    1
    39    15    39    1
