@<TRIPOS>MOLECULE
IMPHY005627
 115 124 0 0 0
SMALL
GASTEIGER

@<TRIPOS>ATOM
      1 O           5.9396   -4.8926    0.0000 O.3     1  UNL1       -0.4570
      2 O           7.2070   -2.9379    0.0000 O.3     1  UNL1       -0.3733
      3 O           5.8924    5.9301    0.0000 O.3     1  UNL1       -0.3870
      4 O           7.9502   -3.6070    0.0000 O.3     1  UNL1       -0.4658
      5 O           7.7423   -4.5851    0.0000 O.2     1  UNL1       -0.2474
      6 O           7.3095    1.5524    0.0000 O.3     1  UNL1       -0.4947
      7 O           3.7698    1.4194    0.0000 O.3     1  UNL1       -0.4671
      8 O           4.0788    0.4683    0.0000 O.2     1  UNL1       -0.2494
      9 O           7.2267   -6.0516    0.0000 O.2     1  UNL1       -0.2512
     10 N           3.5131   -2.6639    0.0000 N.3     1  UNL1       -0.2939
     11 N           6.5926   -1.6633    0.0000 N.pl3   1  UNL1       -0.3252
     12 N           7.7012    4.6081    0.0000 N.3     1  UNL1       -0.2993
     13 N           3.6524    2.5386    0.0000 N.2     1  UNL1       -0.2538
     14 C           5.0528   -2.1636    0.0000 C.3     1  UNL1        0.0369
     15 C           4.4274   -2.8582    0.0000 C.3     1  UNL1        0.0348
     16 C           5.9671   -2.3580    0.0000 C.3     1  UNL1        0.0772
     17 C           4.7162   -3.7472    0.0000 C.3     1  UNL1        0.0453
     18 C           6.2560   -3.2469    0.0000 C.3     1  UNL1        0.2195
     19 C           4.6678   -1.1280    0.0000 C.3     1  UNL1       -0.0272
     20 C           5.6305   -3.9416    0.0000 C.3     1  UNL1        0.1542
     21 C           5.3894   -0.5800    0.0000 C.ar    1  UNL1       -0.0162
     22 C           3.2243   -1.7750    0.0000 C.3     1  UNL1        0.0005
     23 C           5.8238    3.9836    0.0000 C.3     1  UNL1        0.0080
     24 C           4.8422    3.6351    0.0000 C.3     1  UNL1        0.0442
     25 C           6.6112    3.3016    0.0000 C.3     1  UNL1       -0.0200
     26 C           6.3038   -0.7744    0.0000 C.ar    1  UNL1        0.0372
     27 C           5.4170    1.9546    0.0000 C.3     1  UNL1        0.1349
     28 C           5.0253   -4.6983    0.0000 C.3     1  UNL1       -0.0418
     29 C           6.0324    4.9400    0.0000 C.3     1  UNL1        0.0827
     30 C           4.0908   -4.4418    0.0000 C.2     1  UNL1       -0.0755
     31 C           6.4064    2.2803    0.0000 C.3     1  UNL1       -0.0233
     32 C           2.8877   -3.3585    0.0000 C.3     1  UNL1        0.0175
     33 C           4.6456    2.6546    0.0000 C.2     1  UNL1        0.0517
     34 C           5.1006    0.3089    0.0000 C.ar    1  UNL1       -0.0481
     35 C           5.1506    5.0971    0.0000 C.3     1  UNL1       -0.0249
     36 C           7.5280    3.6446    0.0000 C.3     1  UNL1        0.0023
     37 C           5.7261    1.0036    0.0000 C.ar    1  UNL1        0.0170
     38 C           6.9613    5.2490    0.0000 C.3     1  UNL1        0.0281
     39 C           3.1765   -4.2475    0.0000 C.2     1  UNL1       -0.0733
     40 C           6.9991   -3.9161    0.0000 C.2     1  UNL1        0.3446
     41 C           6.5651    5.5785    0.0000 C.3     1  UNL1        0.0002
     42 C           3.9705    4.1250    0.0000 C.ar    1  UNL1       -0.0099
     43 C           6.9292   -0.0797    0.0000 C.ar    1  UNL1        0.0017
     44 C           7.5436   -1.3543    0.0000 C.3     1  UNL1        0.0011
     45 C           6.6404    0.8092    0.0000 C.ar    1  UNL1        0.1264
     46 C           5.2888    5.6085    0.0000 C.3     1  UNL1       -0.0253
     47 C           4.3561   -5.4414    0.0000 C.3     1  UNL1       -0.0643
     48 C           4.7479    1.2115    0.0000 C.2     1  UNL1        0.3232
     49 C           3.2351    3.4474    0.0000 C.ar    1  UNL1        0.0679
     50 C           3.7578    5.1447    0.0000 C.ar    1  UNL1       -0.0557
     51 C           6.2486   -5.8437    0.0000 C.2     1  UNL1        0.3043
     52 C           5.4958    6.5868    0.0000 C.3     1  UNL1       -0.0626
     53 C           2.2362    3.7424    0.0000 C.ar    1  UNL1       -0.0360
     54 C           2.7660    5.4628    0.0000 C.ar    1  UNL1       -0.0613
     55 C           2.0000    4.7569    0.0000 C.ar    1  UNL1       -0.0597
     56 C           8.6933   -4.2762    0.0000 C.3     1  UNL1        0.0818
     57 C           5.5794   -6.5868    0.0000 C.3     1  UNL1        0.0332
     58 C           8.2876    1.3445    0.0000 C.3     1  UNL1        0.0788
     59 C           3.1006    0.6763    0.0000 C.3     1  UNL1        0.0817
     60 H           4.0125   -3.3190    0.0000 H       1  UNL1        0.0482
     61 H           6.5736   -2.4869    0.0000 H       1  UNL1        0.0544
     62 H           5.2440   -0.8993    0.0000 H       1  UNL1        0.0287
     63 H           4.4266   -0.5568    0.0000 H       1  UNL1        0.0287
     64 H           6.2370   -4.0705    0.0000 H       1  UNL1        0.0779
     65 H           2.9911   -1.2005    0.0000 H       1  UNL1        0.0427
     66 H           2.6418   -1.9875    0.0000 H       1  UNL1        0.0427
     67 H           5.3586    4.3934    0.0000 H       1  UNL1        0.0344
     68 H           7.0833    2.8997    0.0000 H       1  UNL1        0.0318
     69 H           5.4070   -5.1868    0.0000 H       1  UNL1        0.0273
     70 H           5.5727   -4.4072    0.0000 H       1  UNL1        0.0273
     71 H           4.2824   -5.0315    0.0000 H       1  UNL1        0.0577
     72 H           6.4967    1.6669    0.0000 H       1  UNL1        0.0286
     73 H           7.0262    2.2643    0.0000 H       1  UNL1        0.0286
     74 H           2.5060   -2.8700    0.0000 H       1  UNL1        0.0470
     75 H           2.3402   -3.6496    0.0000 H       1  UNL1        0.0470
     76 H           4.4942    0.4378    0.0000 H       1  UNL1        0.0625
     77 H           5.0583    5.7102    0.0000 H       1  UNL1        0.0290
     78 H           4.5308    5.1152    0.0000 H       1  UNL1        0.0290
     79 H           7.6387    3.0346    0.0000 H       1  UNL1        0.0429
     80 H           8.1480    3.6451    0.0000 H       1  UNL1        0.0429
     81 H           7.4440    5.6380    0.0000 H       1  UNL1        0.0455
     82 H           6.6642    5.7931    0.0000 H       1  UNL1        0.0455
     83 H           2.7616   -4.7083    0.0000 H       1  UNL1        0.0582
     84 H           7.0451    5.9709    0.0000 H       1  UNL1        0.0427
     85 H           6.2642    6.1206    0.0000 H       1  UNL1        0.0427
     86 H           7.5356   -0.2086    0.0000 H       1  UNL1        0.0673
     87 H           7.7352   -1.9440    0.0000 H       1  UNL1        0.0428
     88 H           8.1333   -1.1627    0.0000 H       1  UNL1        0.0428
     89 H           7.3520   -0.7647    0.0000 H       1  UNL1        0.0428
     90 H           7.6219   -2.4772    0.0000 H       1  UNL1        0.2111
     91 H           4.7137    5.8403    0.0000 H       1  UNL1        0.0291
     92 H           4.9606    5.0824    0.0000 H       1  UNL1        0.0291
     93 H           3.8954   -5.0266    0.0000 H       1  UNL1        0.0230
     94 H           3.9413   -5.9022    0.0000 H       1  UNL1        0.0230
     95 H           4.8169   -5.8563    0.0000 H       1  UNL1        0.0230
     96 H           6.3807    6.3122    0.0000 H       1  UNL1        0.2102
     97 H           4.2186    5.5596    0.0000 H       1  UNL1        0.0621
     98 H           6.1024    6.4584    0.0000 H       1  UNL1        0.0231
     99 H           5.6242    7.1934    0.0000 H       1  UNL1        0.0231
    100 H           4.8893    6.7152    0.0000 H       1  UNL1        0.0231
    101 H           1.7851    3.3170    0.0000 H       1  UNL1        0.0639
    102 H           2.6324    6.0682    0.0000 H       1  UNL1        0.0618
    103 H           1.4075    4.9394    0.0000 H       1  UNL1        0.0618
    104 H           8.2785   -4.7369    0.0000 H       1  UNL1        0.0661
    105 H           9.1541   -4.6910    0.0000 H       1  UNL1        0.0661
    106 H           9.1082   -3.8154    0.0000 H       1  UNL1        0.0661
    107 H           5.1187   -6.1720    0.0000 H       1  UNL1        0.0342
    108 H           5.1646   -7.0476    0.0000 H       1  UNL1        0.0342
    109 H           6.0402   -7.0017    0.0000 H       1  UNL1        0.0342
    110 H           8.1587    0.7380    0.0000 H       1  UNL1        0.0660
    111 H           8.8941    1.2155    0.0000 H       1  UNL1        0.0660
    112 H           8.4165    1.9509    0.0000 H       1  UNL1        0.0660
    113 H           2.6399    1.0911    0.0000 H       1  UNL1        0.0661
    114 H           2.6858    0.2155    0.0000 H       1  UNL1        0.0661
    115 H           3.5614    0.2614    0.0000 H       1  UNL1        0.0661
@<TRIPOS>BOND
     1     1    20    1
     2     1    51    1
     3     2    18    1
     4     2    90    1
     5     3    29    1
     6     3    96    1
     7     4    40    1
     8     4    56    1
     9     5    40    2
    10     6    45    1
    11     6    58    1
    12     7    48    1
    13     7    59    1
    14     8    48    2
    15     9    51    2
    16    10    15    1
    17    10    22    1
    18    10    32    1
    19    11    16    1
    20    11    26    1
    21    11    44    1
    22    12    36    1
    23    12    38    1
    24    12    41    1
    25    13    33    2
    26    13    49    1
    27    14    15    1
    28    14    16    1
    29    14    19    1
    30    14    21    1
    31    15    17    1
    32    15    60    1
    33    16    18    1
    34    16    61    1
    35    17    20    1
    36    17    28    1
    37    17    30    1
    38    18    20    1
    39    18    40    1
    40    19    22    1
    41    19    62    1
    42    19    63    1
    43    20    64    1
    44    21    26   ar
    45    21    34   ar
    46    22    65    1
    47    22    66    1
    48    23    24    1
    49    23    25    1
    50    23    29    1
    51    23    67    1
    52    24    33    1
    53    24    35    1
    54    24    42    1
    55    25    31    1
    56    25    36    1
    57    25    68    1
    58    26    43   ar
    59    27    31    1
    60    27    33    1
    61    27    37    1
    62    27    48    1
    63    28    47    1
    64    28    69    1
    65    28    70    1
    66    29    38    1
    67    29    46    1
    68    30    39    2
    69    30    71    1
    70    31    72    1
    71    31    73    1
    72    32    39    1
    73    32    74    1
    74    32    75    1
    75    34    37   ar
    76    34    76    1
    77    35    41    1
    78    35    77    1
    79    35    78    1
    80    36    79    1
    81    36    80    1
    82    37    45   ar
    83    38    81    1
    84    38    82    1
    85    39    83    1
    86    41    84    1
    87    41    85    1
    88    42    49   ar
    89    42    50   ar
    90    43    45   ar
    91    43    86    1
    92    44    87    1
    93    44    88    1
    94    44    89    1
    95    46    52    1
    96    46    91    1
    97    46    92    1
    98    47    93    1
    99    47    94    1
   100    47    95    1
   101    49    53   ar
   102    50    54   ar
   103    50    97    1
   104    51    57    1
   105    52    98    1
   106    52    99    1
   107    52   100    1
   108    53    55   ar
   109    53   101    1
   110    54    55   ar
   111    54   102    1
   112    55   103    1
   113    56   104    1
   114    56   105    1
   115    56   106    1
   116    57   107    1
   117    57   108    1
   118    57   109    1
   119    58   110    1
   120    58   111    1
   121    58   112    1
   122    59   113    1
   123    59   114    1
   124    59   115    1
