@<TRIPOS>MOLECULE
IMPHY002655
 88 95 0 0 0
SMALL
GASTEIGER

@<TRIPOS>ATOM
      1 O           7.9287   -3.9988    0.0000 O.3     1  UNL1       -0.3578
      2 O          12.0685   -3.0939    0.0000 O.3     1  UNL1       -0.3329
      3 O           5.3444   -3.4282    0.0000 O.3     1  UNL1       -0.3730
      4 O           6.9632   -4.2575    0.0000 O.3     1  UNL1       -0.3886
      5 O          10.6860   -5.1736    0.0000 O.3     1  UNL1       -0.3778
      6 O          13.1258   -4.6692    0.0000 O.2     1  UNL1       -0.4680
      7 O           6.5490    0.6455    0.0000 O.3     1  UNL1       -0.4575
      8 O           3.7429   -0.5537    0.0000 O.3     1  UNL1       -0.3910
      9 O           7.8342    0.2537    0.0000 O.3     1  UNL1       -0.3943
     10 O           8.6363    0.0545    0.0000 O.2     1  UNL1       -0.2974
     11 O           4.8254    0.8164    0.0000 O.2     1  UNL1       -0.2456
     12 C           8.6363   -3.2916    0.0000 C.3     1  UNL1        0.1336
     13 C           8.8951   -4.2575    0.0000 C.3     1  UNL1        0.1055
     14 C           7.9292   -2.5845    0.0000 C.3     1  UNL1        0.0406
     15 C          10.2940   -3.7487    0.0000 C.3     1  UNL1        0.0316
     16 C          10.0352   -2.7828    0.0000 C.3     1  UNL1        0.0955
     17 C           7.6704   -1.6186    0.0000 C.3     1  UNL1        0.0393
     18 C           6.7044   -1.3598    0.0000 C.3     1  UNL1        0.0469
     19 C           5.9973   -2.0668    0.0000 C.3     1  UNL1        0.0093
     20 C          10.7718   -1.8002    0.0000 C.3     1  UNL1       -0.0149
     21 C           7.2221   -3.2916    0.0000 C.3     1  UNL1        0.0904
     22 C           6.2561   -3.0328    0.0000 C.3     1  UNL1        0.0893
     23 C          11.5151   -4.6144    0.0000 C.3     1  UNL1        0.1545
     24 C           4.9871   -1.8128    0.0000 C.3     1  UNL1        0.0233
     25 C           9.1539   -5.2234    0.0000 C.3     1  UNL1       -0.0326
     26 C           8.8951   -2.3257    0.0000 C.3     1  UNL1       -0.0536
     27 C           6.4504   -0.3496    0.0000 C.3     1  UNL1        0.1144
     28 C          12.3441   -4.0552    0.0000 C.3     1  UNL1        0.2342
     29 C           4.7098   -0.8088    0.0000 C.3     1  UNL1        0.0664
     30 C           4.6279   -2.7394    0.0000 C.3     1  UNL1        0.0562
     31 C           7.4115   -0.6526    0.0000 C.3     1  UNL1        0.0542
     32 C           5.4463   -0.0722    0.0000 C.3     1  UNL1        0.0117
     33 C           8.3774   -0.9115    0.0000 C.2     1  UNL1        0.1348
     34 C          11.7915   -5.5692    0.0000 C.2     1  UNL1       -0.0121
     35 C           4.0243   -2.0828    0.0000 C.3     1  UNL1       -0.0547
     36 C          12.7850   -5.6031    0.0000 C.2     1  UNL1        0.0870
     37 C           9.3434   -1.1703    0.0000 C.3     1  UNL1       -0.0057
     38 C           5.7366    1.2286    0.0000 C.2     1  UNL1        0.3322
     39 C           5.8352    2.2237    0.0000 C.2     1  UNL1        0.0231
     40 C           5.0228    2.8067    0.0000 C.2     1  UNL1       -0.0478
     41 C           5.1214    3.8018    0.0000 C.ar    1  UNL1       -0.0248
     42 C           6.0326    4.2139    0.0000 C.ar    1  UNL1       -0.0546
     43 C           4.3090    4.3848    0.0000 C.ar    1  UNL1       -0.0546
     44 C           6.1312    5.2090    0.0000 C.ar    1  UNL1       -0.0612
     45 C           4.4076    5.3799    0.0000 C.ar    1  UNL1       -0.0612
     46 C           5.3188    5.7920    0.0000 C.ar    1  UNL1       -0.0617
     47 H          10.5140   -4.5697    0.0000 H       1  UNL1        0.0363
     48 H           9.8152   -1.9617    0.0000 H       1  UNL1        0.0627
     49 H           8.2692   -1.7790    0.0000 H       1  UNL1        0.0392
     50 H           5.7773   -1.2458    0.0000 H       1  UNL1        0.0341
     51 H          10.4540   -1.2678    0.0000 H       1  UNL1        0.0296
     52 H          11.3850   -1.7082    0.0000 H       1  UNL1        0.0296
     53 H           7.7590   -3.6016    0.0000 H       1  UNL1        0.0626
     54 H           6.3187   -3.8805    0.0000 H       1  UNL1        0.0625
     55 H           9.7528   -5.0630    0.0000 H       1  UNL1        0.0258
     56 H           9.3144   -5.8223    0.0000 H       1  UNL1        0.0258
     57 H           8.5550   -5.3839    0.0000 H       1  UNL1        0.0258
     58 H           8.7346   -1.7268    0.0000 H       1  UNL1        0.0237
     59 H           9.4940   -2.1652    0.0000 H       1  UNL1        0.0237
     60 H           9.0556   -2.9246    0.0000 H       1  UNL1        0.0237
     61 H           7.0687   -0.3039    0.0000 H       1  UNL1        0.0741
     62 H          13.0488   -3.5799    0.0000 H       1  UNL1        0.1090
     63 H           4.5482   -0.2102    0.0000 H       1  UNL1        0.0601
     64 H           4.2608   -3.2390    0.0000 H       1  UNL1        0.0566
     65 H           4.0844   -2.4412    0.0000 H       1  UNL1        0.0566
     66 H           8.0313   -0.6707    0.0000 H       1  UNL1        0.0564
     67 H           6.9036   -0.2970    0.0000 H       1  UNL1        0.0564
     68 H           4.9394    0.2847    0.0000 H       1  UNL1        0.0326
     69 H           5.7112    0.4883    0.0000 H       1  UNL1        0.0326
     70 H           4.1916   -2.6798    0.0000 H       1  UNL1        0.0237
     71 H           3.4273   -2.2502    0.0000 H       1  UNL1        0.0237
     72 H           3.8569   -1.4858    0.0000 H       1  UNL1        0.0237
     73 H          11.4107   -6.0584    0.0000 H       1  UNL1        0.0633
     74 H           6.3644   -4.4180    0.0000 H       1  UNL1        0.2099
     75 H          10.7293   -5.7920    0.0000 H       1  UNL1        0.2109
     76 H          13.1317   -6.1171    0.0000 H       1  UNL1        0.1022
     77 H           9.5038   -0.5714    0.0000 H       1  UNL1        0.0306
     78 H           9.9422   -1.3308    0.0000 H       1  UNL1        0.0306
     79 H           9.1829   -1.7692    0.0000 H       1  UNL1        0.0306
     80 H           3.5801    0.0446    0.0000 H       1  UNL1        0.2098
     81 H           7.4785    0.7615    0.0000 H       1  UNL1        0.2094
     82 H           6.4002    2.4792    0.0000 H       1  UNL1        0.0689
     83 H           4.4579    2.5512    0.0000 H       1  UNL1        0.0626
     84 H           6.5363    3.8524    0.0000 H       1  UNL1        0.0623
     85 H           3.7441    4.1293    0.0000 H       1  UNL1        0.0623
     86 H           6.6962    5.4646    0.0000 H       1  UNL1        0.0618
     87 H           3.9039    5.7414    0.0000 H       1  UNL1        0.0618
     88 H           5.3800    6.4090    0.0000 H       1  UNL1        0.0618
@<TRIPOS>BOND
     1    12     1    1
     2     1    13    1
     3     2    16    1
     4     2    28    1
     5     3    22    1
     6     3    30    1
     7    21     4    1
     8     4    74    1
     9    23     5    1
    10     5    75    1
    11     6    28    1
    12     6    36    1
    13    27     7    1
    14     7    38    1
    15    29     8    1
    16     8    80    1
    17     9    31    1
    18     9    81    1
    19    10    33    2
    20    11    38    2
    21    12    13    1
    22    12    14    1
    23    12    16    1
    24    13    15    1
    25    13    25    1
    26    14    17    1
    27    14    21    1
    28    14    26    1
    29    15    20    1
    30    15    23    1
    31    15    47    1
    32    16    20    1
    33    16    48    1
    34    17    18    1
    35    17    33    1
    36    17    49    1
    37    18    19    1
    38    18    27    1
    39    18    31    1
    40    19    22    1
    41    19    24    1
    42    19    50    1
    43    20    51    1
    44    20    52    1
    45    21    22    1
    46    21    53    1
    47    22    54    1
    48    23    28    1
    49    23    34    1
    50    24    29    1
    51    24    30    1
    52    24    35    1
    53    25    55    1
    54    25    56    1
    55    25    57    1
    56    26    58    1
    57    26    59    1
    58    26    60    1
    59    27    32    1
    60    27    61    1
    61    28    62    1
    62    29    32    1
    63    29    63    1
    64    30    64    1
    65    30    65    1
    66    31    66    1
    67    31    67    1
    68    32    68    1
    69    32    69    1
    70    33    37    1
    71    34    36    2
    72    34    73    1
    73    35    70    1
    74    35    71    1
    75    35    72    1
    76    36    76    1
    77    37    77    1
    78    37    78    1
    79    37    79    1
    80    38    39    1
    81    39    40    2
    82    39    82    1
    83    40    41    1
    84    40    83    1
    85    41    42   ar
    86    41    43   ar
    87    42    44   ar
    88    42    84    1
    89    43    45   ar
    90    43    85    1
    91    44    46   ar
    92    44    86    1
    93    45    46   ar
    94    45    87    1
    95    46    88    1
