@<TRIPOS>MOLECULE
IMPHY006664
 68 71 0 0 0
SMALL
GASTEIGER

@<TRIPOS>ATOM
      1 O           7.6967   -0.5296    0.0000 O.3     1  UNL1       -0.3792
      2 O           5.0109   -1.7512    0.0000 O.2     1  UNL1       -0.2957
      3 O           7.6967    0.4704    0.0000 O.3     1  UNL1       -0.4539
      4 O           8.5462   -1.4904    0.0000 O.3     1  UNL1       -0.4540
      5 O           5.0986    1.9704    0.0000 O.3     1  UNL1       -0.4603
      6 O           6.8306    1.9704    0.0000 O.2     1  UNL1       -0.2511
      7 O           8.9033   -3.1852    0.0000 O.2     1  UNL1       -0.2511
      8 O           5.9646    3.4704    0.0000 O.2     1  UNL1       -0.2512
      9 C           3.3665   -0.0296    0.0000 C.3     1  UNL1       -0.0193
     10 C           3.3665   -1.0296    0.0000 C.3     1  UNL1       -0.0311
     11 C           2.5000   -0.5296    0.0000 C.3     1  UNL1       -0.0277
     12 C           4.2326    0.4704    0.0000 C.3     1  UNL1        0.0406
     13 C           4.2326   -1.5296    0.0000 C.3     1  UNL1       -0.0455
     14 C           5.9646   -1.5296    0.0000 C.3     1  UNL1        0.0867
     15 C           5.0986   -1.0296    0.0000 C.3     1  UNL1       -0.0248
     16 C           6.8306   -1.0296    0.0000 C.3     1  UNL1        0.1630
     17 C           4.8219   -0.7692    0.0000 C.2     1  UNL1        0.1535
     18 C           2.0000   -1.3956    0.0000 C.3     1  UNL1       -0.0593
     19 C           2.0000    0.3365    0.0000 C.3     1  UNL1       -0.0593
     20 C           5.0986   -0.0296    0.0000 C.2     1  UNL1       -0.0675
     21 C           6.8306   -0.0296    0.0000 C.3     1  UNL1        0.1608
     22 C           6.1738   -2.5014    0.0000 C.2     1  UNL1       -0.0650
     23 C           7.5676   -1.6966    0.0000 C.3     1  UNL1        0.1575
     24 C           5.9646   -0.5296    0.0000 C.3     1  UNL1       -0.0611
     25 C           5.9646    0.4704    0.0000 C.2     1  UNL1        0.0071
     26 C           7.1625   -2.6044    0.0000 C.2     1  UNL1       -0.0326
     27 C           5.9646    1.4704    0.0000 C.3     1  UNL1        0.1171
     28 C           7.6625   -3.4704    0.0000 C.3     1  UNL1       -0.0402
     29 C           7.6967    1.4704    0.0000 C.2     1  UNL1        0.3046
     30 C           9.2140   -2.2347    0.0000 C.2     1  UNL1        0.3046
     31 C           8.5627    1.9704    0.0000 C.3     1  UNL1        0.0333
     32 C          10.1925   -2.0285    0.0000 C.3     1  UNL1        0.0333
     33 C           5.0986    2.9704    0.0000 C.2     1  UNL1        0.3043
     34 C           4.2326    3.4704    0.0000 C.3     1  UNL1        0.0332
     35 H           2.9415    0.7066    0.0000 H       1  UNL1        0.0319
     36 H           3.3665   -1.8796    0.0000 H       1  UNL1        0.0309
     37 H           4.0719    1.3051    0.0000 H       1  UNL1        0.0423
     38 H           3.8340   -2.0045    0.0000 H       1  UNL1        0.0271
     39 H           4.6311   -2.0045    0.0000 H       1  UNL1        0.0271
     40 H           4.7886   -0.4926    0.0000 H       1  UNL1        0.0312
     41 H           2.5369    0.6465    0.0000 H       1  UNL1        0.0235
     42 H           1.6900    0.8734    0.0000 H       1  UNL1        0.0235
     43 H           1.4631   -1.0856    0.0000 H       1  UNL1        0.0235
     44 H           1.6900   -1.9325    0.0000 H       1  UNL1        0.0235
     45 H           2.5369   -1.7056    0.0000 H       1  UNL1        0.0235
     46 H           1.4631    0.0265    0.0000 H       1  UNL1        0.0235
     47 H           5.0986   -0.6496    0.0000 H       1  UNL1        0.0581
     48 H           6.8306    0.5904    0.0000 H       1  UNL1        0.0814
     49 H           5.7598   -2.9628    0.0000 H       1  UNL1        0.0583
     50 H           7.9572   -2.1790    0.0000 H       1  UNL1        0.0813
     51 H           6.2746   -1.0665    0.0000 H       1  UNL1        0.0233
     52 H           6.5016   -0.2196    0.0000 H       1  UNL1        0.0233
     53 H           5.6546    0.0074    0.0000 H       1  UNL1        0.0233
     54 H           8.2336   -0.8396    0.0000 H       1  UNL1        0.2106
     55 H           6.5752    1.3628    0.0000 H       1  UNL1        0.0747
     56 H           6.1767    2.0531    0.0000 H       1  UNL1        0.0747
     57 H           7.1256   -3.7804    0.0000 H       1  UNL1        0.0276
     58 H           7.9725   -4.0074    0.0000 H       1  UNL1        0.0276
     59 H           8.1995   -3.1604    0.0000 H       1  UNL1        0.0276
     60 H           8.8727    1.4335    0.0000 H       1  UNL1        0.0342
     61 H           9.0996    2.2804    0.0000 H       1  UNL1        0.0342
     62 H           8.2527    2.5074    0.0000 H       1  UNL1        0.0342
     63 H          10.3204   -2.6352    0.0000 H       1  UNL1        0.0342
     64 H          10.7992   -1.9006    0.0000 H       1  UNL1        0.0342
     65 H          10.0647   -1.4218    0.0000 H       1  UNL1        0.0342
     66 H           4.5426    4.0074    0.0000 H       1  UNL1        0.0342
     67 H           3.6956    3.7804    0.0000 H       1  UNL1        0.0342
     68 H           3.9226    2.9335    0.0000 H       1  UNL1        0.0342
@<TRIPOS>BOND
     1    16     1    1
     2     1    54    1
     3     2    17    2
     4    21     3    1
     5     3    29    1
     6    23     4    1
     7     4    30    1
     8     5    27    1
     9     5    33    1
    10     6    29    2
    11     7    30    2
    12     8    33    2
    13     9    10    1
    14     9    11    1
    15     9    12    1
    16     9    35    1
    17    10    11    1
    18    10    13    1
    19    10    36    1
    20    11    18    1
    21    11    19    1
    22    12    17    1
    23    12    20    1
    24    12    37    1
    25    13    15    1
    26    13    38    1
    27    13    39    1
    28    14    15    1
    29    14    16    1
    30    14    17    1
    31    14    22    1
    32    15    24    1
    33    15    40    1
    34    16    21    1
    35    16    23    1
    36    18    43    1
    37    18    44    1
    38    18    45    1
    39    19    41    1
    40    19    42    1
    41    19    46    1
    42    20    25    2
    43    20    47    1
    44    21    25    1
    45    21    48    1
    46    22    26    2
    47    22    49    1
    48    23    26    1
    49    23    50    1
    50    24    51    1
    51    24    52    1
    52    24    53    1
    53    25    27    1
    54    26    28    1
    55    27    55    1
    56    27    56    1
    57    28    57    1
    58    28    58    1
    59    28    59    1
    60    29    31    1
    61    30    32    1
    62    31    60    1
    63    31    61    1
    64    31    62    1
    65    32    63    1
    66    32    64    1
    67    32    65    1
    68    33    34    1
    69    34    66    1
    70    34    67    1
    71    34    68    1
