@<TRIPOS>MOLECULE
IMPHY017511
 24 24 0 0 0
SMALL
GASTEIGER

@<TRIPOS>ATOM
      1 C           5.0916   -0.0000    0.0000 C.3     1  UNL1        0.0017
      2 C           4.6577   -0.9010    0.0000 C.2     1  UNL1       -0.0744
      3 C           5.9926   -0.4339    0.0000 C.3     1  UNL1       -0.0528
      4 C           5.9926    0.4339    0.0000 C.3     1  UNL1       -0.0528
      5 C           4.6577    0.9010    0.0000 C.2     1  UNL1       -0.0746
      6 C           3.6828   -1.1235    0.0000 C.2     1  UNL1       -0.0620
      7 C           3.6828    1.1235    0.0000 C.2     1  UNL1       -0.0646
      8 C           2.9010   -0.5000    0.0000 C.2     1  UNL1       -0.0507
      9 C           2.9010    0.5000    0.0000 C.2     1  UNL1       -0.0591
     10 C           2.0000   -0.9339    0.0000 C.3     1  UNL1       -0.0397
     11 H           5.0443   -1.3857    0.0000 H       1  UNL1        0.0581
     12 H           5.7236   -0.9925    0.0000 H       1  UNL1        0.0241
     13 H           6.5512   -0.7029    0.0000 H       1  UNL1        0.0241
     14 H           6.2616    0.1247    0.0000 H       1  UNL1        0.0241
     15 H           6.2616   -0.1247    0.0000 H       1  UNL1        0.0241
     16 H           6.5512    0.7029    0.0000 H       1  UNL1        0.0241
     17 H           5.7236    0.9925    0.0000 H       1  UNL1        0.0241
     18 H           5.0443    1.3857    0.0000 H       1  UNL1        0.0580
     19 H           3.5448   -1.7280    0.0000 H       1  UNL1        0.0617
     20 H           3.5448    1.7280    0.0000 H       1  UNL1        0.0615
     21 H           2.3424    0.7690    0.0000 H       1  UNL1        0.0620
     22 H           1.7310   -0.3753    0.0000 H       1  UNL1        0.0278
     23 H           1.4414   -1.2029    0.0000 H       1  UNL1        0.0278
     24 H           2.2690   -1.4925    0.0000 H       1  UNL1        0.0278
@<TRIPOS>BOND
     1     1     2    1
     2     1     3    1
     3     1     4    1
     4     1     5    1
     5     2     6    2
     6     2    11    1
     7     3    12    1
     8     3    13    1
     9     3    14    1
    10     4    15    1
    11     4    16    1
    12     4    17    1
    13     5     7    2
    14     5    18    1
    15     6     8    1
    16     6    19    1
    17     7     9    1
    18     7    20    1
    19     8     9    2
    20     8    10    1
    21     9    21    1
    22    10    22    1
    23    10    23    1
    24    10    24    1
