@<TRIPOS>MOLECULE
IMPHY007718
 46 50 0 0 0
SMALL
GASTEIGER

@<TRIPOS>ATOM
      1 O           4.6140    5.0027    0.0000 O.3     1  UNL1       -0.4575
      2 O           6.5080    3.4287    0.0000 O.3     1  UNL1       -0.3732
      3 O           2.0000    3.4334    0.0000 O.2     1  UNL1       -0.2672
      4 O           6.3840    4.9786    0.0000 O.2     1  UNL1       -0.2472
      5 O           2.4598   -4.1909    0.0000 O.3     1  UNL1       -0.4951
      6 N           2.8660    1.9334    0.0000 N.ar    1  UNL1       -0.3019
      7 N           4.1436   -0.3671    0.0000 N.ar    1  UNL1       -0.2449
      8 C           5.5081    3.4403    0.0000 C.3     1  UNL1        0.1877
      9 C           4.5981    2.9334    0.0000 C.ar    1  UNL1        0.0082
     10 C           3.7320    1.4334    0.0000 C.ar    1  UNL1        0.0713
     11 C           3.7320    3.4334    0.0000 C.ar    1  UNL1        0.0606
     12 C           2.1290    1.2664    0.0000 C.3     1  UNL1        0.0539
     13 C           4.5981    1.9334    0.0000 C.ar    1  UNL1       -0.0290
     14 C           2.5341    0.3586    0.0000 C.ar    1  UNL1        0.0003
     15 C           3.5228    0.4616    0.0000 C.ar    1  UNL1        0.0929
     16 C           2.8660    2.9334    0.0000 C.ar    1  UNL1        0.2589
     17 C           5.9980    2.5686    0.0000 C.3     1  UNL1       -0.0121
     18 C           3.7160    4.4750    0.0000 C.3     1  UNL1        0.1230
     19 C           5.5161    4.4819    0.0000 C.2     1  UNL1        0.3441
     20 C           2.0976   -0.5804    0.0000 C.ar    1  UNL1       -0.0455
     21 C           2.6990   -1.4233    0.0000 C.ar    1  UNL1        0.0042
     22 C           5.4880    1.7084    0.0000 C.3     1  UNL1       -0.0618
     23 C           3.7289   -1.3159    0.0000 C.ar    1  UNL1        0.0720
     24 C           2.2444   -2.4013    0.0000 C.ar    1  UNL1       -0.0108
     25 C           4.3755   -2.1792    0.0000 C.ar    1  UNL1       -0.0323
     26 C           2.8708   -3.2793    0.0000 C.ar    1  UNL1        0.1208
     27 C           3.9436   -3.1675    0.0000 C.ar    1  UNL1       -0.0179
     28 C           3.0437   -5.0027    0.0000 C.3     1  UNL1        0.0788
     29 H           1.7636    1.7672    0.0000 H       1  UNL1        0.0543
     30 H           1.5925    0.9556    0.0000 H       1  UNL1        0.0543
     31 H           5.1350    1.6234    0.0000 H       1  UNL1        0.0643
     32 H           6.4683    2.1646    0.0000 H       1  UNL1        0.0299
     33 H           6.4776    2.9616    0.0000 H       1  UNL1        0.0299
     34 H           3.4980    5.0554    0.0000 H       1  UNL1        0.0750
     35 H           3.1068    4.3595    0.0000 H       1  UNL1        0.0750
     36 H           1.4802   -0.6375    0.0000 H       1  UNL1        0.0628
     37 H           4.9547    2.0246    0.0000 H       1  UNL1        0.0231
     38 H           5.1719    1.1750    0.0000 H       1  UNL1        0.0231
     39 H           6.0214    1.3922    0.0000 H       1  UNL1        0.0231
     40 H           6.8118    2.8883    0.0000 H       1  UNL1        0.2113
     41 H           1.6270   -2.4585    0.0000 H       1  UNL1        0.0661
     42 H           4.9914   -2.1078    0.0000 H       1  UNL1        0.0640
     43 H           4.3095   -3.6680    0.0000 H       1  UNL1        0.0655
     44 H           2.5404   -5.3648    0.0000 H       1  UNL1        0.0660
     45 H           3.4058   -5.5060    0.0000 H       1  UNL1        0.0660
     46 H           3.5470   -4.6407    0.0000 H       1  UNL1        0.0660
@<TRIPOS>BOND
     1     1    18    1
     2     1    19    1
     3     2     8    1
     4     2    40    1
     5     3    16    2
     6     4    19    2
     7     5    26    1
     8     5    28    1
     9     6    10   ar
    10     6    12    1
    11     6    16   ar
    12     7    15   ar
    13     7    23   ar
    14     8     9    1
    15     8    17    1
    16     8    19    1
    17     9    11   ar
    18     9    13   ar
    19    10    13   ar
    20    10    15    1
    21    11    16   ar
    22    11    18    1
    23    12    14    1
    24    12    29    1
    25    12    30    1
    26    13    31    1
    27    14    15   ar
    28    14    20   ar
    29    17    22    1
    30    17    32    1
    31    17    33    1
    32    18    34    1
    33    18    35    1
    34    20    21   ar
    35    20    36    1
    36    21    23   ar
    37    21    24   ar
    38    22    37    1
    39    22    38    1
    40    22    39    1
    41    23    25   ar
    42    24    26   ar
    43    24    41    1
    44    25    27   ar
    45    25    42    1
    46    26    27   ar
    47    27    43    1
    48    28    44    1
    49    28    45    1
    50    28    46    1
