@<TRIPOS>MOLECULE
IMPHY007014
 43 46 0 0 0
SMALL
GASTEIGER

@<TRIPOS>ATOM
      1 O           2.7976   -2.5210    0.0000 O.3     1  UNL1       -0.3917
      2 O           8.4964   -0.4354    0.0000 O.2     1  UNL1       -0.2756
      3 N           3.0238    0.5399    0.0000 N.3     1  UNL1       -0.2986
      4 N           7.1227    0.6811    0.0000 N.am    1  UNL1       -0.2978
      5 C           5.0739    0.8464    0.0000 C.3     1  UNL1       -0.0092
      6 C           5.3327    1.8123    0.0000 C.3     1  UNL1       -0.0092
      7 C           3.8528   -0.0193    0.0000 C.3     1  UNL1        0.0170
      8 C           4.5961    2.7949    0.0000 C.3     1  UNL1       -0.0417
      9 C           6.7643    1.6147    0.0000 C.3     1  UNL1        0.0300
     10 C           3.2994    1.5012    0.0000 C.3     1  UNL1        0.0037
     11 C           6.3456    0.0518    0.0000 C.3     1  UNL1        0.0192
     12 C           3.7962   -1.0594    0.0000 C.3     1  UNL1       -0.0108
     13 C           7.4073    2.4342    0.0000 C.3     1  UNL1       -0.0336
     14 C           2.0807    0.0978    0.0000 C.3     1  UNL1        0.0015
     15 C           2.8636   -1.5232    0.0000 C.3     1  UNL1        0.0578
     16 C           2.0000   -0.9407    0.0000 C.3     1  UNL1       -0.0140
     17 C           8.4373    2.2792    0.0000 C.3     1  UNL1       -0.0431
     18 C           8.1489    0.5023    0.0000 C.2     1  UNL1        0.2158
     19 C           8.8106    1.3067    0.0000 C.3     1  UNL1        0.0242
     20 H           4.8539    0.0254    0.0000 H       1  UNL1        0.0331
     21 H           5.5527    2.6334    0.0000 H       1  UNL1        0.0331
     22 H           4.5575   -0.4946    0.0000 H       1  UNL1        0.0466
     23 H           4.9139    3.3273    0.0000 H       1  UNL1        0.0273
     24 H           3.9829    2.8869    0.0000 H       1  UNL1        0.0273
     25 H           6.4597    2.4082    0.0000 H       1  UNL1        0.0503
     26 H           3.2944    2.1212    0.0000 H       1  UNL1        0.0430
     27 H           2.6851    1.5850    0.0000 H       1  UNL1        0.0430
     28 H           5.9610   -0.4346    0.0000 H       1  UNL1        0.0468
     29 H           6.7865   -0.3841    0.0000 H       1  UNL1        0.0468
     30 H           3.9732   -1.6536    0.0000 H       1  UNL1        0.0305
     31 H           4.4119   -0.9866    0.0000 H       1  UNL1        0.0305
     32 H           7.6031    3.0224    0.0000 H       1  UNL1        0.0283
     33 H           6.8612    2.7278    0.0000 H       1  UNL1        0.0283
     34 H           1.9174    0.6959    0.0000 H       1  UNL1        0.0427
     35 H           1.4634    0.0393    0.0000 H       1  UNL1        0.0427
     36 H           3.3796   -1.8669    0.0000 H       1  UNL1        0.0594
     37 H           1.3992   -0.7876    0.0000 H       1  UNL1        0.0302
     38 H           1.7464   -1.5064    0.0000 H       1  UNL1        0.0302
     39 H           9.0456    2.3990    0.0000 H       1  UNL1        0.0270
     40 H           8.4233    2.8990    0.0000 H       1  UNL1        0.0270
     41 H           9.2150    0.8367    0.0000 H       1  UNL1        0.0358
     42 H           9.3429    1.6247    0.0000 H       1  UNL1        0.0358
     43 H           2.2414   -2.7949    0.0000 H       1  UNL1        0.2098
@<TRIPOS>BOND
     1    15     1    1
     2     1    43    1
     3     2    18    2
     4     3     7    1
     5     3    10    1
     6     3    14    1
     7     4     9    1
     8     4    11    1
     9     4    18   am
    10     5     7    1
    11     5     8    1
    12     5    11    1
    13     5    20    1
    14     6     8    1
    15     6     9    1
    16     6    10    1
    17     6    21    1
    18     7    12    1
    19     7    22    1
    20     8    23    1
    21     8    24    1
    22     9    13    1
    23     9    25    1
    24    10    26    1
    25    10    27    1
    26    11    28    1
    27    11    29    1
    28    12    15    1
    29    12    30    1
    30    12    31    1
    31    13    17    1
    32    13    32    1
    33    13    33    1
    34    14    16    1
    35    14    34    1
    36    14    35    1
    37    15    16    1
    38    15    36    1
    39    16    37    1
    40    16    38    1
    41    17    19    1
    42    17    39    1
    43    17    40    1
    44    18    19    1
    45    19    41    1
    46    19    42    1
