@<TRIPOS>MOLECULE
IMPHY013755
 32 31 0 0 0
SMALL
GASTEIGER

@<TRIPOS>ATOM
      1 O           2.5369   -0.4330    0.0000 O.3     1  UNL1       -0.3891
      2 O           9.4651    0.5670    0.0000 O.2     1  UNL1       -0.3010
      3 C           5.1350    0.0670    0.0000 C.3     1  UNL1       -0.0502
      4 C           6.0010    0.5670    0.0000 C.3     1  UNL1       -0.0500
      5 C           4.2690    0.5670    0.0000 C.3     1  UNL1       -0.0245
      6 C           6.8671    0.0670    0.0000 C.3     1  UNL1       -0.0375
      7 C           3.4030    0.0670    0.0000 C.3     1  UNL1        0.0605
      8 C           7.7331    0.5670    0.0000 C.3     1  UNL1        0.0054
      9 C           6.8671   -0.9330    0.0000 C.3     1  UNL1       -0.0620
     10 C           2.9030    0.9330    0.0000 C.3     1  UNL1       -0.0363
     11 C           3.9030   -0.7990    0.0000 C.3     1  UNL1       -0.0363
     12 C           8.5991    0.0670    0.0000 C.2     1  UNL1        0.1206
     13 H           4.7365   -0.4080    0.0000 H       1  UNL1        0.0266
     14 H           5.5335   -0.4080    0.0000 H       1  UNL1        0.0266
     15 H           6.3996    1.0419    0.0000 H       1  UNL1        0.0268
     16 H           5.6025    1.0419    0.0000 H       1  UNL1        0.0268
     17 H           4.6675    1.0419    0.0000 H       1  UNL1        0.0293
     18 H           3.8705    1.0419    0.0000 H       1  UNL1        0.0293
     19 H           6.3301   -0.2430    0.0000 H       1  UNL1        0.0302
     20 H           8.1316    1.0419    0.0000 H       1  UNL1        0.0341
     21 H           7.3346    1.0419    0.0000 H       1  UNL1        0.0341
     22 H           6.2471   -0.9330    0.0000 H       1  UNL1        0.0233
     23 H           6.8671   -1.5530    0.0000 H       1  UNL1        0.0233
     24 H           7.4871   -0.9330    0.0000 H       1  UNL1        0.0233
     25 H           3.4399    1.2430    0.0000 H       1  UNL1        0.0257
     26 H           2.5930    1.4700    0.0000 H       1  UNL1        0.0257
     27 H           2.3660    0.6230    0.0000 H       1  UNL1        0.0257
     28 H           3.3660   -1.1090    0.0000 H       1  UNL1        0.0257
     29 H           4.2130   -1.3360    0.0000 H       1  UNL1        0.0257
     30 H           4.4399   -0.4890    0.0000 H       1  UNL1        0.0257
     31 H           2.0000   -0.1230    0.0000 H       1  UNL1        0.2101
     32 H           8.5991   -0.5530    0.0000 H       1  UNL1        0.1026
@<TRIPOS>BOND
     1     1     7    1
     2     1    31    1
     3     2    12    2
     4     3     4    1
     5     3     5    1
     6     3    13    1
     7     3    14    1
     8     4     6    1
     9     4    15    1
    10     4    16    1
    11     5     7    1
    12     5    17    1
    13     5    18    1
    14     6     8    1
    15     6     9    1
    16     6    19    1
    17     7    10    1
    18     7    11    1
    19     8    12    1
    20     8    20    1
    21     8    21    1
    22     9    22    1
    23     9    23    1
    24     9    24    1
    25    10    25    1
    26    10    26    1
    27    10    27    1
    28    11    28    1
    29    11    29    1
    30    11    30    1
    31    12    32    1
