@<TRIPOS>MOLECULE
IMPHY014506
 40 41 0 0 0
SMALL
GASTEIGER

@<TRIPOS>ATOM
      1 O           4.5981   -1.5950    0.0000 O.3     1  UNL1       -0.3906
      2 C           5.4641    0.9050    0.0000 C.3     1  UNL1       -0.0229
      3 C           5.4641   -0.0950    0.0000 C.3     1  UNL1        0.0118
      4 C           4.5981    1.4050    0.0000 C.3     1  UNL1       -0.0464
      5 C           4.5981   -0.5950    0.0000 C.3     1  UNL1        0.0686
      6 C           3.7320   -0.0950    0.0000 C.3     1  UNL1        0.0062
      7 C           6.3580    1.4397    0.0000 C.3     1  UNL1       -0.0435
      8 C           3.7320    0.9050    0.0000 C.3     1  UNL1       -0.0436
      9 C           6.3580   -0.6297    0.0000 C.2     1  UNL1       -0.0705
     10 C           5.4641    1.9050    0.0000 C.3     1  UNL1       -0.0589
     11 C           7.2641    0.9258    0.0000 C.3     1  UNL1       -0.0340
     12 C           7.2641   -0.1158    0.0000 C.2     1  UNL1       -0.0846
     13 C           2.8660   -0.5950    0.0000 C.2     1  UNL1       -0.0742
     14 C           6.3465   -1.6296    0.0000 C.3     1  UNL1       -0.0434
     15 C           2.0000   -0.0950    0.0000 C.3     1  UNL1       -0.0437
     16 C           2.8660   -1.5950    0.0000 C.2     1  UNL1       -0.0994
     17 H           6.0034    0.2109    0.0000 H       1  UNL1        0.0376
     18 H           4.9966    1.8800    0.0000 H       1  UNL1        0.0271
     19 H           4.1996    1.8800    0.0000 H       1  UNL1        0.0271
     20 H           5.1350   -0.9050    0.0000 H       1  UNL1        0.0605
     21 H           3.7320   -0.7150    0.0000 H       1  UNL1        0.0371
     22 H           6.7517    1.9187    0.0000 H       1  UNL1        0.0274
     23 H           5.9534    1.9094    0.0000 H       1  UNL1        0.0274
     24 H           3.5200    1.4876    0.0000 H       1  UNL1        0.0272
     25 H           3.1215    0.7973    0.0000 H       1  UNL1        0.0272
     26 H           6.0841    1.9050    0.0000 H       1  UNL1        0.0235
     27 H           5.4641    2.5250    0.0000 H       1  UNL1        0.0235
     28 H           4.8441    1.9050    0.0000 H       1  UNL1        0.0235
     29 H           7.8750    0.8197    0.0000 H       1  UNL1        0.0308
     30 H           7.4732    1.5095    0.0000 H       1  UNL1        0.0308
     31 H           7.7998   -0.4279    0.0000 H       1  UNL1        0.0572
     32 H           5.7265   -1.6224    0.0000 H       1  UNL1        0.0274
     33 H           6.3393   -2.2496    0.0000 H       1  UNL1        0.0274
     34 H           6.9664   -1.6368    0.0000 H       1  UNL1        0.0274
     35 H           4.0611   -1.9050    0.0000 H       1  UNL1        0.2098
     36 H           2.3100    0.4419    0.0000 H       1  UNL1        0.0274
     37 H           1.4631    0.2150    0.0000 H       1  UNL1        0.0274
     38 H           1.6900   -0.6319    0.0000 H       1  UNL1        0.0274
     39 H           2.3291   -1.9050    0.0000 H       1  UNL1        0.0534
     40 H           3.4030   -1.9050    0.0000 H       1  UNL1        0.0534
@<TRIPOS>BOND
     1     5     1    1
     2     1    35    1
     3     2     3    1
     4     2     4    1
     5     2     7    1
     6     2    10    1
     7     3     5    1
     8     3     9    1
     9     3    17    1
    10     4     8    1
    11     4    18    1
    12     4    19    1
    13     5     6    1
    14     5    20    1
    15     6     8    1
    16     6    13    1
    17     6    21    1
    18     7    11    1
    19     7    22    1
    20     7    23    1
    21     8    24    1
    22     8    25    1
    23     9    12    2
    24     9    14    1
    25    10    26    1
    26    10    27    1
    27    10    28    1
    28    11    12    1
    29    11    29    1
    30    11    30    1
    31    12    31    1
    32    13    15    1
    33    13    16    2
    34    14    32    1
    35    14    33    1
    36    14    34    1
    37    15    36    1
    38    15    37    1
    39    15    38    1
    40    16    39    1
    41    16    40    1
