@<TRIPOS>MOLECULE
IMPHY014560
 55 59 0 0 0
SMALL
GASTEIGER

@<TRIPOS>ATOM
      1 O           8.2794    2.3390    0.0000 O.3     1  UNL1       -0.3647
      2 O           7.3956   -1.1004    0.0000 O.3     1  UNL1       -0.3848
      3 O           5.8910    2.0632    0.0000 O.3     1  UNL1       -0.3883
      4 O           2.3776   -1.9559    0.0000 O.3     1  UNL1       -0.4802
      5 O           2.3976   -0.2240    0.0000 O.2     1  UNL1       -0.2504
      6 C           6.5296    0.3996    0.0000 C.3     1  UNL1        0.0314
      7 C           6.5296   -0.6004    0.0000 C.3     1  UNL1        0.1057
      8 C           8.1123    0.7360    0.0000 C.3     1  UNL1       -0.0066
      9 C           7.6123    1.6020    0.0000 C.3     1  UNL1        0.0964
     10 C           5.6636   -1.1004    0.0000 C.3     1  UNL1        0.0036
     11 C           9.1871    1.9339    0.0000 C.3     1  UNL1        0.0896
     12 C           6.6341    1.3941    0.0000 C.3     1  UNL1        0.0924
     13 C           7.4431   -0.0072    0.0000 C.3     1  UNL1       -0.0366
     14 C           9.0841    0.9452    0.0000 C.3     1  UNL1       -0.0183
     15 C           4.7975   -0.6004    0.0000 C.3     1  UNL1       -0.0174
     16 C           5.6636    0.8996    0.0000 C.3     1  UNL1       -0.0419
     17 C           4.7975    0.3996    0.0000 C.3     1  UNL1       -0.0479
     18 C           5.6796   -2.1419    0.0000 C.3     1  UNL1       -0.0446
     19 C           3.8875   -1.1073    0.0000 C.3     1  UNL1        0.0682
     20 C           6.5296   -1.6004    0.0000 C.3     1  UNL1       -0.0566
     21 C           7.1123    2.4680    0.0000 C.3     1  UNL1       -0.0331
     22 C           4.7816   -2.6697    0.0000 C.3     1  UNL1       -0.0515
     23 C           3.8795   -2.1489    0.0000 C.3     1  UNL1       -0.0372
     24 C           3.3976   -0.2355    0.0000 C.3     1  UNL1       -0.0491
     25 C           2.8876   -1.0957    0.0000 C.2     1  UNL1        0.3110
     26 H           8.5382    0.0004    0.0000 H       1  UNL1        0.0330
     27 H           9.9233    2.3589    0.0000 H       1  UNL1        0.0625
     28 H           6.7946    1.9930    0.0000 H       1  UNL1        0.0628
     29 H           7.9447   -0.3716    0.0000 H       1  UNL1        0.0276
     30 H           7.1331   -0.5441    0.0000 H       1  UNL1        0.0276
     31 H           4.0647   -0.1698    0.0000 H       1  UNL1        0.0317
     32 H           9.7041    0.9461    0.0000 H       1  UNL1        0.0295
     33 H           9.1501    0.3287    0.0000 H       1  UNL1        0.0295
     34 H           5.2650    1.3745    0.0000 H       1  UNL1        0.0272
     35 H           6.0621    1.3745    0.0000 H       1  UNL1        0.0272
     36 H           4.1870    0.2919    0.0000 H       1  UNL1        0.0269
     37 H           4.5855    0.9822    0.0000 H       1  UNL1        0.0269
     38 H           6.2888   -2.0264    0.0000 H       1  UNL1        0.0272
     39 H           5.8976   -2.7223    0.0000 H       1  UNL1        0.0272
     40 H           6.8396   -1.0635    0.0000 H       1  UNL1        0.0236
     41 H           7.0665   -1.9104    0.0000 H       1  UNL1        0.0236
     42 H           6.2196   -2.1374    0.0000 H       1  UNL1        0.0236
     43 H           6.5753    2.1580    0.0000 H       1  UNL1        0.0258
     44 H           6.8023    3.0050    0.0000 H       1  UNL1        0.0258
     45 H           7.6492    2.7780    0.0000 H       1  UNL1        0.0258
     46 H           7.3956   -1.7204    0.0000 H       1  UNL1        0.2103
     47 H           5.1826   -3.1426    0.0000 H       1  UNL1        0.0266
     48 H           4.3843   -3.1456    0.0000 H       1  UNL1        0.0266
     49 H           3.6660   -2.7309    0.0000 H       1  UNL1        0.0276
     50 H           3.2695   -2.0381    0.0000 H       1  UNL1        0.0276
     51 H           6.0199    2.6697    0.0000 H       1  UNL1        0.2099
     52 H           2.8571   -0.5393    0.0000 H       1  UNL1        0.0240
     53 H           3.0938    0.3050    0.0000 H       1  UNL1        0.0240
     54 H           3.9381    0.0683    0.0000 H       1  UNL1        0.0240
     55 H           1.7577   -1.9487    0.0000 H       1  UNL1        0.2951
@<TRIPOS>BOND
     1     1     9    1
     2     1    11    1
     3     7     2    1
     4     2    46    1
     5    12     3    1
     6     3    51    1
     7     4    25    1
     8     4    55    1
     9     5    25    2
    10     6     7    1
    11     6    12    1
    12     6    13    1
    13     6    16    1
    14     7    10    1
    15     7    11    1
    16     8     9    1
    17     8    13    1
    18     8    14    1
    19     8    26    1
    20     9    12    1
    21     9    21    1
    22    10    15    1
    23    10    18    1
    24    10    20    1
    25    11    14    1
    26    11    27    1
    27    12    28    1
    28    13    29    1
    29    13    30    1
    30    14    32    1
    31    14    33    1
    32    15    17    1
    33    15    19    1
    34    15    31    1
    35    16    17    1
    36    16    34    1
    37    16    35    1
    38    17    36    1
    39    17    37    1
    40    18    22    1
    41    18    38    1
    42    18    39    1
    43    19    23    1
    44    19    24    1
    45    19    25    1
    46    20    40    1
    47    20    41    1
    48    20    42    1
    49    21    43    1
    50    21    44    1
    51    21    45    1
    52    22    23    1
    53    22    47    1
    54    22    48    1
    55    23    49    1
    56    23    50    1
    57    24    52    1
    58    24    53    1
    59    24    54    1
