@<TRIPOS>MOLECULE
IMPHY008823
 38 37 0 0 0
SMALL
GASTEIGER

@<TRIPOS>ATOM
      1 O          15.8564    8.7500    0.0000 O.3     1  UNL1       -0.3536
      2 O          13.2583   11.2500    0.0000 O.2     1  UNL1       -0.2961
      3 C          14.1244    9.7500    0.0000 C.3     1  UNL1        0.0600
      4 C          14.1244    8.7500    0.0000 C.3     1  UNL1        0.0074
      5 C          13.2583    8.2500    0.0000 C.3     1  UNL1        0.0004
      6 C          14.9904   10.2500    0.0000 C.3     1  UNL1        0.0369
      7 C          13.2583    7.2500    0.0000 C.3     1  UNL1        0.0000
      8 C          12.3923    6.7500    0.0000 C.3     1  UNL1        0.0000
      9 C          12.3923    5.7500    0.0000 C.3     1  UNL1        0.0000
     10 C          11.5263    5.2500    0.0000 C.3     1  UNL1        0.0000
     11 C          11.5263    4.2500    0.0000 C.3     1  UNL1        0.0000
     12 C          15.8564    9.7500    0.0000 C.3     1  UNL1        0.1158
     13 C          10.6603    3.7500    0.0000 C.3     1  UNL1        0.0000
     14 C          10.6603    2.7500    0.0000 C.3     1  UNL1        0.0000
     15 C           9.7942    2.2500    0.0000 C.3     1  UNL1        0.0000
     16 C           9.7942    1.2500    0.0000 C.3     1  UNL1        0.0000
     17 C           8.9282    0.7500    0.0000 C.3     1  UNL1        0.0000
     18 C           8.9282   -0.2500    0.0000 C.3     1  UNL1        0.0000
     19 C           8.0622   -0.7500    0.0000 C.3     1  UNL1        0.0000
     20 C           8.0622   -1.7500    0.0000 C.3     1  UNL1        0.0000
     21 C           7.1962   -2.2500    0.0000 C.3     1  UNL1        0.0000
     22 C          13.2583   10.2500    0.0000 C.2     1  UNL1        0.1508
     23 C           7.1962   -3.2500    0.0000 C.3     1  UNL1        0.0000
     24 C           6.3301   -3.7500    0.0000 C.3     1  UNL1        0.0000
     25 C          16.7224   10.2500    0.0000 C.3     1  UNL1        0.0296
     26 C           6.3301   -4.7500    0.0000 C.3     1  UNL1        0.0000
     27 C           5.4641   -5.2500    0.0000 C.3     1  UNL1        0.0000
     28 C           5.4641   -6.2500    0.0000 C.3     1  UNL1        0.0000
     29 C           4.5981   -6.7500    0.0000 C.3     1  UNL1        0.0000
     30 C          12.3923    9.7500    0.0000 C.3     1  UNL1        0.0722
     31 C          17.5885    9.7500    0.0000 C.3     1  UNL1        0.0026
     32 C           4.5981   -7.7500    0.0000 C.3     1  UNL1        0.0003
     33 C           3.7321   -8.2500    0.0000 C.3     1  UNL1        0.0047
     34 C          16.7224    8.2500    0.0000 C.3     1  UNL1        0.1740
     35 C           3.7321   -9.2500    0.0000 C.3     1  UNL1        0.0257
     36 C           2.8660   -9.7500    0.0000 C.2     1  UNL1       -0.0307
     37 C           2.8660  -10.7500    0.0000 C.2     1  UNL1       -0.0304
     38 C           2.0000  -11.2500    0.0000 C.3     1  UNL1        0.0303
@<TRIPOS>BOND
     1     1    12    1
     2     1    34    1
     3     2    22    2
     4     3     4    1
     5     3     6    1
     6     3    22    1
     7     4     5    1
     8     5     7    1
     9     6    12    1
    10     7     8    1
    11     8     9    1
    12     9    10    1
    13    10    11    1
    14    11    13    1
    15    12    25    1
    16    13    14    1
    17    14    15    1
    18    15    16    1
    19    16    17    1
    20    17    18    1
    21    18    19    1
    22    19    20    1
    23    20    21    1
    24    21    23    1
    25    22    30    1
    26    23    24    1
    27    24    26    1
    28    25    31    1
    29    26    27    1
    30    27    28    1
    31    28    29    1
    32    29    32    1
    33    32    33    1
    34    33    35    1
    35    35    36    1
    36    36    37    2
    37    37    38    1
