@<TRIPOS>MOLECULE
IMPHY009886
 30 30 0 0 0
SMALL
GASTEIGER

@<TRIPOS>ATOM
      1 O           2.8660   -1.7500    0.0000 O.3     1  UNL1       -0.4914
      2 O           4.5981   -2.7500    0.0000 O.3     1  UNL1       -0.4915
      3 C           4.5981    0.2500    0.0000 C.ar    1  UNL1       -0.0216
      4 C           3.7320   -1.2500    0.0000 C.ar    1  UNL1        0.1620
      5 C           3.7320   -0.2500    0.0000 C.ar    1  UNL1       -0.0092
      6 C           4.5981   -1.7500    0.0000 C.ar    1  UNL1        0.1615
      7 C           5.4641   -0.2500    0.0000 C.ar    1  UNL1       -0.0509
      8 C           4.5981    1.2500    0.0000 C.2     1  UNL1       -0.0584
      9 C           5.4641   -1.2500    0.0000 C.ar    1  UNL1       -0.0157
     10 C           5.4641    2.7500    0.0000 C.3     1  UNL1       -0.0373
     11 C           5.4641    1.7500    0.0000 C.2     1  UNL1       -0.0837
     12 C           6.3301    3.2500    0.0000 C.3     1  UNL1       -0.0618
     13 C           2.0000   -1.2500    0.0000 C.3     1  UNL1        0.0790
     14 C           5.4641   -3.2500    0.0000 C.3     1  UNL1        0.0790
     15 H           3.1951    0.0600    0.0000 H       1  UNL1        0.0661
     16 H           6.0010    0.0600    0.0000 H       1  UNL1        0.0625
     17 H           4.0611    1.5600    0.0000 H       1  UNL1        0.0620
     18 H           6.0010   -1.5600    0.0000 H       1  UNL1        0.0655
     19 H           5.2520    3.3326    0.0000 H       1  UNL1        0.0305
     20 H           4.8535    2.6423    0.0000 H       1  UNL1        0.0305
     21 H           6.0010    1.4400    0.0000 H       1  UNL1        0.0572
     22 H           6.6401    2.7131    0.0000 H       1  UNL1        0.0233
     23 H           6.8671    3.5600    0.0000 H       1  UNL1        0.0233
     24 H           6.0201    3.7869    0.0000 H       1  UNL1        0.0233
     25 H           2.3100   -0.7131    0.0000 H       1  UNL1        0.0660
     26 H           1.4631   -0.9400    0.0000 H       1  UNL1        0.0660
     27 H           1.6900   -1.7869    0.0000 H       1  UNL1        0.0660
     28 H           5.1541   -3.7869    0.0000 H       1  UNL1        0.0660
     29 H           6.0010   -3.5600    0.0000 H       1  UNL1        0.0660
     30 H           5.7741   -2.7131    0.0000 H       1  UNL1        0.0660
@<TRIPOS>BOND
     1     1     4    1
     2     1    13    1
     3     2     6    1
     4     2    14    1
     5     3     5   ar
     6     3     7   ar
     7     3     8    1
     8     4     5   ar
     9     4     6   ar
    10     5    15    1
    11     6     9   ar
    12     7     9   ar
    13     7    16    1
    14     8    11    2
    15     8    17    1
    16     9    18    1
    17    10    11    1
    18    10    12    1
    19    10    19    1
    20    10    20    1
    21    11    21    1
    22    12    22    1
    23    12    23    1
    24    12    24    1
    25    13    25    1
    26    13    26    1
    27    13    27    1
    28    14    28    1
    29    14    29    1
    30    14    30    1
