@<TRIPOS>MOLECULE
IMPHY017199
 16 15 0 0 0
SMALL
GASTEIGER

@<TRIPOS>ATOM
      1 C           3.7320    0.2500    0.0000 C.2     1  UNL1       -0.0552
      2 C           4.5981    0.7500    0.0000 C.2     1  UNL1       -0.0842
      3 C           3.7320   -0.7500    0.0000 C.3     1  UNL1       -0.0400
      4 C           5.4641    0.2500    0.0000 C.3     1  UNL1       -0.0463
      5 C           2.8660    0.7500    0.0000 C.2     1  UNL1       -0.0662
      6 C           2.0000    0.2500    0.0000 C.2     1  UNL1       -0.0985
      7 H           4.5981    1.3700    0.0000 H       1  UNL1        0.0572
      8 H           3.1120   -0.7500    0.0000 H       1  UNL1        0.0277
      9 H           3.7320   -1.3700    0.0000 H       1  UNL1        0.0277
     10 H           4.3520   -0.7500    0.0000 H       1  UNL1        0.0277
     11 H           5.1541   -0.2869    0.0000 H       1  UNL1        0.0272
     12 H           6.0010   -0.0600    0.0000 H       1  UNL1        0.0272
     13 H           5.7741    0.7869    0.0000 H       1  UNL1        0.0272
     14 H           2.8660    1.3700    0.0000 H       1  UNL1        0.0614
     15 H           1.4631    0.5600    0.0000 H       1  UNL1        0.0535
     16 H           2.0000   -0.3700    0.0000 H       1  UNL1        0.0535
@<TRIPOS>BOND
     1     1     2    2
     2     1     3    1
     3     1     5    1
     4     2     4    1
     5     2     7    1
     6     3     8    1
     7     3     9    1
     8     3    10    1
     9     4    11    1
    10     4    12    1
    11     4    13    1
    12     5     6    2
    13     5    14    1
    14     6    15    1
    15     6    16    1
