@<TRIPOS>MOLECULE
IMPHY012653
 28 30 0 0 0
SMALL
GASTEIGER

@<TRIPOS>ATOM
      1 O           6.4783    0.8047    0.0000 O.2     1  UNL1       -0.4512
      2 O           4.6660   -2.0000    0.0000 O.2     1  UNL1       -0.2865
      3 O           4.6660    2.0000    0.0000 O.2     1  UNL1       -0.2833
      4 C           5.5321   -0.5000    0.0000 C.ar    1  UNL1        0.0718
      5 C           5.5321    0.5000    0.0000 C.ar    1  UNL1        0.1864
      6 C           3.8000   -0.5000    0.0000 C.ar    1  UNL1        0.0333
      7 C           3.8000    0.5000    0.0000 C.ar    1  UNL1        0.0362
      8 C           4.6660   -1.0000    0.0000 C.2     1  UNL1        0.1976
      9 C           4.6660    1.0000    0.0000 C.2     1  UNL1        0.2293
     10 C           6.4783   -0.8047    0.0000 C.ar    1  UNL1       -0.0046
     11 C           7.0619   -0.0000    0.0000 C.ar    1  UNL1        0.1318
     12 C           2.9061   -1.0347    0.0000 C.ar    1  UNL1       -0.0502
     13 C           2.9061    1.0347    0.0000 C.ar    1  UNL1       -0.0501
     14 C           8.0619   -0.0000    0.0000 C.2     1  UNL1       -0.0152
     15 C           2.0000   -0.5208    0.0000 C.ar    1  UNL1       -0.0610
     16 C           2.0000    0.5208    0.0000 C.ar    1  UNL1       -0.0610
     17 C           8.5619   -0.8660    0.0000 C.3     1  UNL1       -0.0368
     18 C           8.5619    0.8660    0.0000 C.2     1  UNL1       -0.0923
     19 H           6.6709   -1.3940    0.0000 H       1  UNL1        0.0663
     20 H           2.9132   -1.6546    0.0000 H       1  UNL1        0.0625
     21 H           2.9132    1.6546    0.0000 H       1  UNL1        0.0625
     22 H           1.4643   -0.8329    0.0000 H       1  UNL1        0.0618
     23 H           1.4643    0.8329    0.0000 H       1  UNL1        0.0618
     24 H           8.0250   -1.1760    0.0000 H       1  UNL1        0.0278
     25 H           8.8719   -1.4030    0.0000 H       1  UNL1        0.0278
     26 H           9.0988   -0.5560    0.0000 H       1  UNL1        0.0278
     27 H           9.1819    0.8660    0.0000 H       1  UNL1        0.0539
     28 H           8.2519    1.4030    0.0000 H       1  UNL1        0.0539
@<TRIPOS>BOND
     1     1     5   ar
     2     1    11   ar
     3     2     8    2
     4     3     9    2
     5     4     5   ar
     6     4     8    1
     7     4    10   ar
     8     5     9    1
     9     6     7   ar
    10     6     8    1
    11     6    12   ar
    12     7     9    1
    13     7    13   ar
    14    10    11   ar
    15    10    19    1
    16    11    14    1
    17    12    15   ar
    18    12    20    1
    19    13    16   ar
    20    13    21    1
    21    14    17    1
    22    14    18    2
    23    15    16   ar
    24    15    22    1
    25    16    23    1
    26    17    24    1
    27    17    25    1
    28    17    26    1
    29    18    27    1
    30    18    28    1
