@<TRIPOS>MOLECULE
IMPHY004525
 20 19 0 0 0
SMALL
GASTEIGER

@<TRIPOS>ATOM
      1 S           6.3301    0.7500    0.0000 S.3     1  UNL1       -0.1637
      2 O           3.7320   -0.7500    0.0000 O.2     1  UNL1       -0.2974
      3 C           4.5981    0.7500    0.0000 C.3     1  UNL1        0.0148
      4 C           3.7320    0.2500    0.0000 C.2     1  UNL1        0.1339
      5 C           2.8660    0.7500    0.0000 C.3     1  UNL1        0.0030
      6 C           5.4641    0.2500    0.0000 C.3     1  UNL1        0.0001
      7 C           2.0000    0.2500    0.0000 C.3     1  UNL1       -0.0586
      8 C           7.1962    0.2500    0.0000 C.3     1  UNL1       -0.0181
      9 H           4.9966    1.2250    0.0000 H       1  UNL1        0.0349
     10 H           4.1996    1.2250    0.0000 H       1  UNL1        0.0349
     11 H           5.0656   -0.2249    0.0000 H       1  UNL1        0.0380
     12 H           5.8626   -0.2249    0.0000 H       1  UNL1        0.0380
     13 H           3.2646    1.2250    0.0000 H       1  UNL1        0.0339
     14 H           2.4675    1.2250    0.0000 H       1  UNL1        0.0339
     15 H           1.6900    0.7869    0.0000 H       1  UNL1        0.0234
     16 H           1.4631   -0.0600    0.0000 H       1  UNL1        0.0234
     17 H           2.3100   -0.2869    0.0000 H       1  UNL1        0.0234
     18 H           6.8862   -0.2869    0.0000 H       1  UNL1        0.0340
     19 H           7.7331   -0.0600    0.0000 H       1  UNL1        0.0340
     20 H           7.5062    0.7869    0.0000 H       1  UNL1        0.0340
@<TRIPOS>BOND
     1     1     6    1
     2     1     8    1
     3     2     4    2
     4     3     4    1
     5     3     6    1
     6     3     9    1
     7     3    10    1
     8     4     5    1
     9     5     7    1
    10     5    13    1
    11     5    14    1
    12     6    11    1
    13     6    12    1
    14     7    15    1
    15     7    16    1
    16     7    17    1
    17     8    18    1
    18     8    19    1
    19     8    20    1
