@<TRIPOS>MOLECULE
IMPHY004490
 34 36 0 0 0
SMALL
GASTEIGER

@<TRIPOS>ATOM
      1 O           5.5301   -1.7379    0.0000 O.2     1  UNL1       -0.4618
      2 O           5.5301    1.2621    0.0000 O.2     1  UNL1       -0.2863
      3 O           3.7817    1.2967    0.0000 O.3     1  UNL1       -0.5058
      4 O           9.8602   -0.2379    0.0000 O.3     1  UNL1       -0.4914
      5 O           2.0000   -1.7621    0.0000 O.3     1  UNL1       -0.5065
      6 O           9.8602    1.7621    0.0000 O.3     1  UNL1       -0.5033
      7 C           6.3961   -0.2379    0.0000 C.ar    1  UNL1        0.0645
      8 C           4.6641   -0.2379    0.0000 C.ar    1  UNL1        0.1060
      9 C           7.2622    0.2621    0.0000 C.ar    1  UNL1       -0.0076
     10 C           5.5301    0.2621    0.0000 C.ar    1  UNL1        0.2037
     11 C           4.6641   -1.2379    0.0000 C.ar    1  UNL1        0.1454
     12 C           3.7702    0.2967    0.0000 C.ar    1  UNL1        0.1347
     13 C           6.3961   -1.2379    0.0000 C.ar    1  UNL1        0.1038
     14 C           8.1282   -0.2379    0.0000 C.ar    1  UNL1       -0.0084
     15 C           3.7702   -1.7726    0.0000 C.ar    1  UNL1        0.0231
     16 C           7.2622    1.2621    0.0000 C.ar    1  UNL1       -0.0501
     17 C           2.8641   -0.2171    0.0000 C.ar    1  UNL1        0.0223
     18 C           8.9942    0.2621    0.0000 C.ar    1  UNL1        0.1618
     19 C           2.8641   -1.2587    0.0000 C.ar    1  UNL1        0.1239
     20 C           8.1282    1.7621    0.0000 C.ar    1  UNL1       -0.0159
     21 C           8.9942    1.2621    0.0000 C.ar    1  UNL1        0.1585
     22 C           9.8602   -1.2379    0.0000 C.3     1  UNL1        0.0790
     23 H           6.9331   -1.5479    0.0000 H       1  UNL1        0.1037
     24 H           8.1282   -0.8579    0.0000 H       1  UNL1        0.0661
     25 H           3.7773   -2.3926    0.0000 H       1  UNL1        0.0691
     26 H           6.7252    1.5721    0.0000 H       1  UNL1        0.0625
     27 H           2.3284    0.0950    0.0000 H       1  UNL1        0.0691
     28 H           8.1282    2.3821    0.0000 H       1  UNL1        0.0655
     29 H           3.2484    1.6129    0.0000 H       1  UNL1        0.2922
     30 H           2.0024   -2.3821    0.0000 H       1  UNL1        0.2921
     31 H           9.8602    2.3821    0.0000 H       1  UNL1        0.2923
     32 H           9.2402   -1.2379    0.0000 H       1  UNL1        0.0660
     33 H           9.8602   -1.8579    0.0000 H       1  UNL1        0.0660
     34 H          10.4803   -1.2379    0.0000 H       1  UNL1        0.0660
@<TRIPOS>BOND
     1     1    11   ar
     2     1    13   ar
     3     2    10    2
     4     3    12    1
     5     3    29    1
     6     4    18    1
     7     4    22    1
     8     5    19    1
     9     5    30    1
    10     6    21    1
    11     6    31    1
    12     7     9    1
    13     7    10   ar
    14     7    13   ar
    15     8    10   ar
    16     8    11   ar
    17     8    12   ar
    18     9    14   ar
    19     9    16   ar
    20    11    15   ar
    21    12    17   ar
    22    13    23    1
    23    14    18   ar
    24    14    24    1
    25    15    19   ar
    26    15    25    1
    27    16    20   ar
    28    16    26    1
    29    17    19   ar
    30    17    27    1
    31    18    21   ar
    32    20    21   ar
    33    20    28    1
    34    22    32    1
    35    22    33    1
    36    22    34    1
