@<TRIPOS>MOLECULE
IMPHY009045
 37 39 0 0 0
SMALL
GASTEIGER

@<TRIPOS>ATOM
      1 O           5.5301   -1.9279    0.0000 O.2     1  UNL1       -0.4620
      2 O           2.0000    0.0962    0.0000 O.3     1  UNL1       -0.4914
      3 O           5.5301    1.0721    0.0000 O.2     1  UNL1       -0.2864
      4 O           2.0000   -1.9521    0.0000 O.3     1  UNL1       -0.5032
      5 O           9.8602    1.5721    0.0000 O.3     1  UNL1       -0.4915
      6 O           9.8602   -0.4279    0.0000 O.3     1  UNL1       -0.5033
      7 C           4.6641   -0.4279    0.0000 C.ar    1  UNL1        0.0682
      8 C           6.3961   -0.4279    0.0000 C.ar    1  UNL1        0.0644
      9 C           4.6641   -1.4279    0.0000 C.ar    1  UNL1        0.1421
     10 C           5.5301    0.0721    0.0000 C.ar    1  UNL1        0.2003
     11 C           7.2622    0.0721    0.0000 C.ar    1  UNL1       -0.0076
     12 C           3.7702    0.1067    0.0000 C.ar    1  UNL1       -0.0019
     13 C           6.3961   -1.4279    0.0000 C.ar    1  UNL1        0.1038
     14 C           3.7702   -1.9626    0.0000 C.ar    1  UNL1        0.0265
     15 C           2.8641   -0.4071    0.0000 C.ar    1  UNL1        0.1622
     16 C           8.1282   -0.4279    0.0000 C.ar    1  UNL1       -0.0086
     17 C           2.8641   -1.4487    0.0000 C.ar    1  UNL1        0.1620
     18 C           7.2622    1.0721    0.0000 C.ar    1  UNL1       -0.0501
     19 C           8.9942    0.0721    0.0000 C.ar    1  UNL1        0.1590
     20 C           8.9942    1.0721    0.0000 C.ar    1  UNL1        0.1613
     21 C           8.1282    1.5721    0.0000 C.ar    1  UNL1       -0.0157
     22 C           2.0038    1.0962    0.0000 C.3     1  UNL1        0.0790
     23 C           9.8602    2.5721    0.0000 C.3     1  UNL1        0.0790
     24 H           3.7773    0.7267    0.0000 H       1  UNL1        0.0663
     25 H           6.9331   -1.7379    0.0000 H       1  UNL1        0.1037
     26 H           3.7773   -2.5826    0.0000 H       1  UNL1        0.0692
     27 H           8.1282   -1.0479    0.0000 H       1  UNL1        0.0661
     28 H           6.7252    1.3821    0.0000 H       1  UNL1        0.0625
     29 H           8.1282    2.1921    0.0000 H       1  UNL1        0.0655
     30 H           2.0024   -2.5721    0.0000 H       1  UNL1        0.2923
     31 H           2.6238    1.0938    0.0000 H       1  UNL1        0.0660
     32 H           2.0062    1.7162    0.0000 H       1  UNL1        0.0660
     33 H           1.3839    1.0986    0.0000 H       1  UNL1        0.0660
     34 H           9.8602   -1.0479    0.0000 H       1  UNL1        0.2923
     35 H          10.4803    2.5721    0.0000 H       1  UNL1        0.0660
     36 H           9.8602    3.1921    0.0000 H       1  UNL1        0.0660
     37 H           9.2402    2.5721    0.0000 H       1  UNL1        0.0660
@<TRIPOS>BOND
     1     1     9   ar
     2     1    13   ar
     3     2    15    1
     4     2    22    1
     5     3    10    2
     6     4    17    1
     7     4    30    1
     8     5    20    1
     9     5    23    1
    10     6    19    1
    11     6    34    1
    12     7     9   ar
    13     7    10   ar
    14     7    12   ar
    15     8    10   ar
    16     8    11    1
    17     8    13   ar
    18     9    14   ar
    19    11    16   ar
    20    11    18   ar
    21    12    15   ar
    22    12    24    1
    23    13    25    1
    24    14    17   ar
    25    14    26    1
    26    15    17   ar
    27    16    19   ar
    28    16    27    1
    29    18    21   ar
    30    18    28    1
    31    19    20   ar
    32    20    21   ar
    33    21    29    1
    34    22    31    1
    35    22    32    1
    36    22    33    1
    37    23    35    1
    38    23    36    1
    39    23    37    1
