@<TRIPOS>MOLECULE
IMPHY015685
 27 28 0 0 0
SMALL
GASTEIGER

@<TRIPOS>ATOM
      1 O           6.5953   -1.6617    0.0000 O.2     1  UNL1       -0.2968
      2 C           4.6964   -0.2868    0.0000 C.3     1  UNL1        0.0270
      3 C           4.9552    0.6791    0.0000 C.3     1  UNL1       -0.0283
      4 C           2.9816    0.0608    0.0000 C.3     1  UNL1       -0.0308
      5 C           4.2186    1.6617    0.0000 C.3     1  UNL1       -0.0372
      6 C           3.3236   -0.8789    0.0000 C.3     1  UNL1       -0.0355
      7 C           6.3541    0.1703    0.0000 C.3     1  UNL1        0.0097
      8 C           6.0953   -0.7957    0.0000 C.2     1  UNL1        0.1395
      9 C           4.4375   -1.2528    0.0000 C.3     1  UNL1       -0.0528
     10 C           2.0000   -0.1300    0.0000 C.3     1  UNL1       -0.0595
     11 C           2.4968    0.9354    0.0000 C.3     1  UNL1       -0.0595
     12 H           4.9411    0.0592    0.0000 H       1  UNL1        0.0310
     13 H           4.5364    2.1940    0.0000 H       1  UNL1        0.0277
     14 H           3.6054    1.7536    0.0000 H       1  UNL1        0.0277
     15 H           2.7452   -1.1022    0.0000 H       1  UNL1        0.0280
     16 H           3.5581   -1.4528    0.0000 H       1  UNL1        0.0280
     17 H           6.9481   -0.0075    0.0000 H       1  UNL1        0.0345
     18 H           6.5490    0.7588    0.0000 H       1  UNL1        0.0345
     19 H           3.8387   -1.0923    0.0000 H       1  UNL1        0.0239
     20 H           4.2771   -1.8516    0.0000 H       1  UNL1        0.0239
     21 H           5.0364   -1.4132    0.0000 H       1  UNL1        0.0239
     22 H           1.8817    0.4786    0.0000 H       1  UNL1        0.0235
     23 H           1.3914   -0.2483    0.0000 H       1  UNL1        0.0235
     24 H           2.1183   -0.7386    0.0000 H       1  UNL1        0.0235
     25 H           3.0391    1.2360    0.0000 H       1  UNL1        0.0235
     26 H           2.1962    1.4777    0.0000 H       1  UNL1        0.0235
     27 H           1.9546    0.6349    0.0000 H       1  UNL1        0.0235
@<TRIPOS>BOND
     1     1     8    2
     2     2     5    1
     3     2     6    1
     4     2     8    1
     5     2     9    1
     6     3     4    1
     7     3     5    1
     8     3     7    1
     9     3    12    1
    10     4     6    1
    11     4    10    1
    12     4    11    1
    13     5    13    1
    14     5    14    1
    15     6    15    1
    16     6    16    1
    17     7     8    1
    18     7    17    1
    19     7    18    1
    20     9    19    1
    21     9    20    1
    22     9    21    1
    23    10    22    1
    24    10    23    1
    25    10    24    1
    26    11    25    1
    27    11    26    1
    28    11    27    1
