@<TRIPOS>MOLECULE
IMPHY015333
 32 31 0 0 0
SMALL
GASTEIGER

@<TRIPOS>ATOM
      1 C           3.7320   -0.4330    0.0000 C.3     1  UNL1       -0.0325
      2 C           4.5981    0.0670    0.0000 C.3     1  UNL1       -0.0476
      3 C           2.8660   -0.9330    0.0000 C.3     1  UNL1       -0.0505
      4 C           3.2320    0.4330    0.0000 C.3     1  UNL1       -0.0505
      5 C           4.2320   -1.2990    0.0000 C.3     1  UNL1       -0.0596
      6 C           5.4641   -0.4330    0.0000 C.3     1  UNL1       -0.0528
      7 C           6.3301    0.0670    0.0000 C.3     1  UNL1       -0.0559
      8 C           2.0000   -0.4330    0.0000 C.3     1  UNL1       -0.0648
      9 C           3.7320    1.2990    0.0000 C.3     1  UNL1       -0.0648
     10 C           7.1962   -0.4330    0.0000 C.3     1  UNL1       -0.0653
     11 H           4.9966    0.5419    0.0000 H       1  UNL1        0.0271
     12 H           4.1996    0.5419    0.0000 H       1  UNL1        0.0271
     13 H           2.4675   -1.4080    0.0000 H       1  UNL1        0.0268
     14 H           3.2646   -1.4080    0.0000 H       1  UNL1        0.0268
     15 H           2.7571    0.8315    0.0000 H       1  UNL1        0.0268
     16 H           2.7571    0.0345    0.0000 H       1  UNL1        0.0268
     17 H           3.6951   -1.6090    0.0000 H       1  UNL1        0.0235
     18 H           4.5420   -1.8360    0.0000 H       1  UNL1        0.0235
     19 H           4.7690   -0.9890    0.0000 H       1  UNL1        0.0235
     20 H           5.0656   -0.9080    0.0000 H       1  UNL1        0.0265
     21 H           5.8626   -0.9080    0.0000 H       1  UNL1        0.0265
     22 H           6.7287    0.5419    0.0000 H       1  UNL1        0.0263
     23 H           5.9316    0.5419    0.0000 H       1  UNL1        0.0263
     24 H           2.3100    0.1039    0.0000 H       1  UNL1        0.0230
     25 H           1.4631   -0.1230    0.0000 H       1  UNL1        0.0230
     26 H           1.6900   -0.9699    0.0000 H       1  UNL1        0.0230
     27 H           4.2690    0.9890    0.0000 H       1  UNL1        0.0230
     28 H           4.0420    1.8360    0.0000 H       1  UNL1        0.0230
     29 H           3.1951    1.6090    0.0000 H       1  UNL1        0.0230
     30 H           6.8862   -0.9699    0.0000 H       1  UNL1        0.0230
     31 H           7.7331   -0.7430    0.0000 H       1  UNL1        0.0230
     32 H           7.5062    0.1039    0.0000 H       1  UNL1        0.0230
@<TRIPOS>BOND
     1     1     2    1
     2     1     3    1
     3     1     4    1
     4     1     5    1
     5     2     6    1
     6     2    11    1
     7     2    12    1
     8     3     8    1
     9     3    13    1
    10     3    14    1
    11     4     9    1
    12     4    15    1
    13     4    16    1
    14     5    17    1
    15     5    18    1
    16     5    19    1
    17     6     7    1
    18     6    20    1
    19     6    21    1
    20     7    10    1
    21     7    22    1
    22     7    23    1
    23     8    24    1
    24     8    25    1
    25     8    26    1
    26     9    27    1
    27     9    28    1
    28     9    29    1
    29    10    30    1
    30    10    31    1
    31    10    32    1
