@<TRIPOS>MOLECULE
IMPHY007037
 21 21 0 0 0
SMALL
GASTEIGER

@<TRIPOS>ATOM
      1 C           2.8660    1.2500    0.0000 C.3     1  UNL1       -0.0215
      2 C           2.8660    0.2500    0.0000 C.ar    1  UNL1       -0.0448
      3 C           3.7320    1.7500    0.0000 C.3     1  UNL1       -0.0587
      4 C           2.0000    1.7500    0.0000 C.3     1  UNL1       -0.0587
      5 C           2.0000   -0.2500    0.0000 C.ar    1  UNL1       -0.0583
      6 C           3.7320   -0.2500    0.0000 C.ar    1  UNL1       -0.0583
      7 C           2.0000   -1.2500    0.0000 C.ar    1  UNL1       -0.0615
      8 C           3.7320   -1.2500    0.0000 C.ar    1  UNL1       -0.0615
      9 C           2.8660   -1.7500    0.0000 C.ar    1  UNL1       -0.0617
     10 H           2.8660    1.8700    0.0000 H       1  UNL1        0.0343
     11 H           4.0420    1.2131    0.0000 H       1  UNL1        0.0235
     12 H           4.2690    2.0600    0.0000 H       1  UNL1        0.0235
     13 H           3.4220    2.2869    0.0000 H       1  UNL1        0.0235
     14 H           2.3100    2.2869    0.0000 H       1  UNL1        0.0235
     15 H           1.4631    2.0600    0.0000 H       1  UNL1        0.0235
     16 H           1.6900    1.2131    0.0000 H       1  UNL1        0.0235
     17 H           1.4631    0.0600    0.0000 H       1  UNL1        0.0620
     18 H           4.2690    0.0600    0.0000 H       1  UNL1        0.0620
     19 H           1.4631   -1.5600    0.0000 H       1  UNL1        0.0618
     20 H           4.2690   -1.5600    0.0000 H       1  UNL1        0.0618
     21 H           2.8660   -2.3700    0.0000 H       1  UNL1        0.0618
@<TRIPOS>BOND
     1     1     2    1
     2     1     3    1
     3     1     4    1
     4     1    10    1
     5     2     5   ar
     6     2     6   ar
     7     3    11    1
     8     3    12    1
     9     3    13    1
    10     4    14    1
    11     4    15    1
    12     4    16    1
    13     5     7   ar
    14     5    17    1
    15     6     8   ar
    16     6    18    1
    17     7     9   ar
    18     7    19    1
    19     8     9   ar
    20     8    20    1
    21     9    21    1
