@<TRIPOS>MOLECULE
IMPHY002563
 81 84 0 0 0
SMALL
GASTEIGER

@<TRIPOS>ATOM
      1 O           2.5357   -3.2258    0.0000 O.3     1  UNL1       -0.3909
      2 C           7.9288   -1.1735    0.0000 C.3     1  UNL1       -0.0228
      3 C           7.9288   -0.1735    0.0000 C.3     1  UNL1       -0.0233
      4 C           7.0628   -1.6735    0.0000 C.3     1  UNL1       -0.0257
      5 C           6.1968   -1.1735    0.0000 C.3     1  UNL1       -0.0219
      6 C           8.8750    0.1313    0.0000 C.3     1  UNL1       -0.0325
      7 C           7.0628    0.3265    0.0000 C.3     1  UNL1       -0.0463
      8 C           8.8750   -1.4782    0.0000 C.3     1  UNL1       -0.0466
      9 C           6.1968   -0.1735    0.0000 C.3     1  UNL1       -0.0463
     10 C           5.2868   -1.6803    0.0000 C.3     1  UNL1       -0.0136
     11 C           9.4586   -0.6735    0.0000 C.3     1  UNL1       -0.0489
     12 C           7.0789   -2.7150    0.0000 C.3     1  UNL1       -0.0306
     13 C           7.9288   -2.1735    0.0000 C.3     1  UNL1       -0.0588
     14 C           7.9288    0.8265    0.0000 C.3     1  UNL1       -0.0588
     15 C           9.1857    1.0818    0.0000 C.3     1  UNL1       -0.0403
     16 C           5.2787   -2.7219    0.0000 C.2     1  UNL1       -0.0618
     17 C           5.3307   -0.6735    0.0000 C.3     1  UNL1       -0.0587
     18 C           4.3599   -1.1162    0.0000 C.3     1  UNL1       -0.0436
     19 C           6.1808   -3.2427    0.0000 C.2     1  UNL1       -0.0836
     20 C           4.3433   -3.2716    0.0000 C.3     1  UNL1        0.0123
     21 C           3.4120   -1.6442    0.0000 C.3     1  UNL1       -0.0255
     22 C           3.4037   -2.7291    0.0000 C.3     1  UNL1        0.0640
     23 C          10.1642    1.2880    0.0000 C.3     1  UNL1       -0.0467
     24 C           8.5179    1.8261    0.0000 C.3     1  UNL1       -0.0621
     25 C           3.8467   -4.1396    0.0000 C.3     1  UNL1       -0.0537
     26 C           4.8466   -4.1357    0.0000 C.3     1  UNL1       -0.0537
     27 C          10.4749    2.2385    0.0000 C.3     1  UNL1       -0.0343
     28 C          11.4534    2.4448    0.0000 C.2     1  UNL1       -0.0853
     29 C          11.7640    3.3953    0.0000 C.2     1  UNL1       -0.0796
     30 C          12.7425    3.6015    0.0000 C.3     1  UNL1       -0.0440
     31 C          11.0962    4.1396    0.0000 C.3     1  UNL1       -0.0440
     32 H           7.8022   -2.0928    0.0000 H       1  UNL1        0.0315
     33 H           9.7148    0.2632    0.0000 H       1  UNL1        0.0309
     34 H           7.4613    0.8015    0.0000 H       1  UNL1        0.0271
     35 H           6.6643    0.8015    0.0000 H       1  UNL1        0.0271
     36 H           8.6240   -2.0451    0.0000 H       1  UNL1        0.0271
     37 H           9.4124   -1.7874    0.0000 H       1  UNL1        0.0271
     38 H           5.9847    0.4092    0.0000 H       1  UNL1        0.0271
     39 H           5.5862   -0.2811    0.0000 H       1  UNL1        0.0271
     40 H           6.0179   -2.1138    0.0000 H       1  UNL1        0.0351
     41 H           9.9195   -1.0882    0.0000 H       1  UNL1        0.0268
     42 H           9.9195   -0.2587    0.0000 H       1  UNL1        0.0268
     43 H           7.2969   -3.2954    0.0000 H       1  UNL1        0.0310
     44 H           7.6880   -2.5995    0.0000 H       1  UNL1        0.0310
     45 H           7.3088   -2.1735    0.0000 H       1  UNL1        0.0235
     46 H           7.9288   -2.7935    0.0000 H       1  UNL1        0.0235
     47 H           8.5488   -2.1735    0.0000 H       1  UNL1        0.0235
     48 H           8.5488    0.8265    0.0000 H       1  UNL1        0.0235
     49 H           7.9288    1.4465    0.0000 H       1  UNL1        0.0235
     50 H           7.3088    0.8265    0.0000 H       1  UNL1        0.0235
     51 H           9.3783    1.6711    0.0000 H       1  UNL1        0.0301
     52 H           5.6407   -0.1365    0.0000 H       1  UNL1        0.0235
     53 H           4.7938   -0.3635    0.0000 H       1  UNL1        0.0235
     54 H           5.0207   -1.2104    0.0000 H       1  UNL1        0.0235
     55 H           4.7681   -0.6496    0.0000 H       1  UNL1        0.0272
     56 H           3.9700   -0.6342    0.0000 H       1  UNL1        0.0272
     57 H           6.1832   -3.8627    0.0000 H       1  UNL1        0.0572
     58 H           3.2075   -1.0589    0.0000 H       1  UNL1        0.0290
     59 H           2.8004   -1.7456    0.0000 H       1  UNL1        0.0290
     60 H           3.4025   -3.3491    0.0000 H       1  UNL1        0.0602
     61 H          10.1848    0.6684    0.0000 H       1  UNL1        0.0271
     62 H          10.7780    1.2007    0.0000 H       1  UNL1        0.0271
     63 H           8.9793    2.2402    0.0000 H       1  UNL1        0.0233
     64 H           8.1038    2.2876    0.0000 H       1  UNL1        0.0233
     65 H           8.0564    1.4120    0.0000 H       1  UNL1        0.0233
     66 H           3.3085   -3.8316    0.0000 H       1  UNL1        0.0239
     67 H           3.5387   -4.6777    0.0000 H       1  UNL1        0.0239
     68 H           4.3848   -4.4475    0.0000 H       1  UNL1        0.0239
     69 H           4.3109   -4.4478    0.0000 H       1  UNL1        0.0239
     70 H           5.1587   -4.6715    0.0000 H       1  UNL1        0.0239
     71 H           5.3824   -3.8236    0.0000 H       1  UNL1        0.0239
     72 H          10.4543    2.8582    0.0000 H       1  UNL1        0.0307
     73 H           9.8611    2.3259    0.0000 H       1  UNL1        0.0307
     74 H           2.0000   -2.9137    0.0000 H       1  UNL1        0.2098
     75 H          11.8674    1.9833    0.0000 H       1  UNL1        0.0571
     76 H          12.8704    2.9948    0.0000 H       1  UNL1        0.0274
     77 H          13.3492    3.7294    0.0000 H       1  UNL1        0.0274
     78 H          12.6147    4.2082    0.0000 H       1  UNL1        0.0274
     79 H          11.5577    4.5536    0.0000 H       1  UNL1        0.0274
     80 H          10.6821    4.6010    0.0000 H       1  UNL1        0.0274
     81 H          10.6347    3.7255    0.0000 H       1  UNL1        0.0274
@<TRIPOS>BOND
     1    22     1    1
     2     1    74    1
     3     2     3    1
     4     2     4    1
     5     2     8    1
     6     2    13    1
     7     3     6    1
     8     3     7    1
     9     3    14    1
    10     4     5    1
    11     4    12    1
    12     4    32    1
    13     5     9    1
    14     5    10    1
    15     5    17    1
    16     6    11    1
    17     6    15    1
    18     6    33    1
    19     7     9    1
    20     7    34    1
    21     7    35    1
    22     8    11    1
    23     8    36    1
    24     8    37    1
    25     9    38    1
    26     9    39    1
    27    10    16    1
    28    10    18    1
    29    10    40    1
    30    11    41    1
    31    11    42    1
    32    12    19    1
    33    12    43    1
    34    12    44    1
    35    13    45    1
    36    13    46    1
    37    13    47    1
    38    14    48    1
    39    14    49    1
    40    14    50    1
    41    15    23    1
    42    15    24    1
    43    15    51    1
    44    16    19    2
    45    16    20    1
    46    17    52    1
    47    17    53    1
    48    17    54    1
    49    18    21    1
    50    18    55    1
    51    18    56    1
    52    19    57    1
    53    20    22    1
    54    20    25    1
    55    20    26    1
    56    21    22    1
    57    21    58    1
    58    21    59    1
    59    22    60    1
    60    23    27    1
    61    23    61    1
    62    23    62    1
    63    24    63    1
    64    24    64    1
    65    24    65    1
    66    25    66    1
    67    25    67    1
    68    25    68    1
    69    26    69    1
    70    26    70    1
    71    26    71    1
    72    27    28    1
    73    27    72    1
    74    27    73    1
    75    28    29    2
    76    28    75    1
    77    29    30    1
    78    29    31    1
    79    30    76    1
    80    30    77    1
    81    30    78    1
    82    31    79    1
    83    31    80    1
    84    31    81    1
