@<TRIPOS>MOLECULE
IMPHY005881
 37 40 0 0 0
SMALL
GASTEIGER

@<TRIPOS>ATOM
      1 O           6.0290    1.7326    0.0000 O.2     1  UNL1       -0.4214
      2 O           4.2850   -2.2742    0.0000 O.2     1  UNL1       -0.4220
      3 O           6.0010    0.7673    0.0000 O.3     1  UNL1       -0.4944
      4 O           2.5369    1.7673    0.0000 O.3     1  UNL1       -0.5060
      5 O           7.7991    1.7432    0.0000 O.2     1  UNL1       -0.2452
      6 O           3.3909   -3.8020    0.0000 O.2     1  UNL1       -0.2452
      7 C           4.2690    0.7673    0.0000 C.ar    1  UNL1        0.0316
      8 C           4.2690    1.7673    0.0000 C.ar    1  UNL1        0.0700
      9 C           5.1350    2.2673    0.0000 C.ar    1  UNL1        0.1503
     10 C           5.1350    0.2673    0.0000 C.ar    1  UNL1        0.1315
     11 C           3.4030    0.2673    0.0000 C.ar    1  UNL1       -0.0396
     12 C           3.4030   -0.7327    0.0000 C.ar    1  UNL1        0.0184
     13 C           5.1350    3.2673    0.0000 C.ar    1  UNL1        0.0184
     14 C           3.4030    2.2673    0.0000 C.ar    1  UNL1        0.1282
     15 C           4.2690   -1.2327    0.0000 C.ar    1  UNL1        0.1426
     16 C           5.1350   -0.7327    0.0000 C.ar    1  UNL1        0.0237
     17 C           4.2690    3.7673    0.0000 C.ar    1  UNL1       -0.0476
     18 C           3.4030    3.2673    0.0000 C.ar    1  UNL1       -0.0188
     19 C           2.4930   -1.2396    0.0000 C.ar    1  UNL1       -0.0443
     20 C           6.0290    3.8020    0.0000 C.ar    1  UNL1       -0.0443
     21 C           6.9350    3.2881    0.0000 C.ar    1  UNL1        0.0236
     22 C           2.4849   -2.2811    0.0000 C.ar    1  UNL1        0.0236
     23 C           6.9350    2.2465    0.0000 C.ar    1  UNL1        0.3372
     24 C           3.3870   -2.8020    0.0000 C.ar    1  UNL1        0.3372
     25 C           6.8671    0.2673    0.0000 C.3     1  UNL1        0.0788
     26 H           2.8660    0.5773    0.0000 H       1  UNL1        0.0632
     27 H           5.6720   -1.0427    0.0000 H       1  UNL1        0.0691
     28 H           4.2690    4.3873    0.0000 H       1  UNL1        0.0626
     29 H           2.8660    3.5773    0.0000 H       1  UNL1        0.0654
     30 H           1.9596   -0.9234    0.0000 H       1  UNL1        0.0627
     31 H           6.0218    4.4219    0.0000 H       1  UNL1        0.0627
     32 H           7.4708    3.6002    0.0000 H       1  UNL1        0.0689
     33 H           1.9468   -2.5891    0.0000 H       1  UNL1        0.0689
     34 H           2.0000    2.0773    0.0000 H       1  UNL1        0.2922
     35 H           6.5571   -0.2696    0.0000 H       1  UNL1        0.0660
     36 H           7.4040   -0.0427    0.0000 H       1  UNL1        0.0660
     37 H           7.1771    0.8042    0.0000 H       1  UNL1        0.0660
@<TRIPOS>BOND
     1     1     9   ar
     2     1    23   ar
     3     2    15   ar
     4     2    24   ar
     5     3    10    1
     6     3    25    1
     7     4    14    1
     8     4    34    1
     9     5    23    2
    10     6    24    2
    11     7     8    1
    12     7    10   ar
    13     7    11   ar
    14     8     9   ar
    15     8    14   ar
    16     9    13   ar
    17    10    16   ar
    18    11    12   ar
    19    11    26    1
    20    12    15   ar
    21    12    19   ar
    22    13    17   ar
    23    13    20   ar
    24    14    18   ar
    25    15    16   ar
    26    16    27    1
    27    17    18   ar
    28    17    28    1
    29    18    29    1
    30    19    22   ar
    31    19    30    1
    32    20    21   ar
    33    20    31    1
    34    21    23   ar
    35    21    32    1
    36    22    24   ar
    37    22    33    1
    38    25    35    1
    39    25    36    1
    40    25    37    1
