@<TRIPOS>MOLECULE
IMPHY002328
 21 24 0 0 0
SMALL
GASTEIGER

@<TRIPOS>ATOM
      1 O        2551.7600 2453.5900    0.0000 O.3     1  UNL1       -0.4522
      2 C        2586.3700 2473.6200    0.0000 C.2     1  UNL1        0.3174
      3 C        2620.9700 2453.5900    0.0000 C.3     1  UNL1        0.1212
      4 O        2586.3700 2513.5800    0.0000 O.2     1  UNL1       -0.2501
      5 C        2517.1500 2473.6200    0.0000 C.3     1  UNL1        0.1700
      6 C        2482.6500 2453.4900    0.0000 C.3     1  UNL1        0.0536
      7 C        2448.1400 2473.6200    0.0000 C.3     1  UNL1        0.0487
      8 C        2448.1400 2513.8800    0.0000 C.3     1  UNL1        0.0137
      9 C        2482.6500 2534.0100    0.0000 C.3     1  UNL1        0.0048
     10 C        2517.1500 2513.8800    0.0000 C.3     1  UNL1        0.0437
     11 C        2482.6500 2574.2700    0.0000 C.3     1  UNL1        0.0002
     12 C        2442.3900 2574.2700    0.0000 C.3     1  UNL1        0.0013
     13 C        2413.1400 2493.6500    0.0000 C.3     1  UNL1        0.0148
     14 C        2419.3800 2606.9900    0.0000 C.3     1  UNL1        0.0000
     15 C        2413.5300 2534.0100    0.0000 C.3     1  UNL1        0.0027
     16 C        2379.0300 2513.8800    0.0000 C.3     1  UNL1        0.0174
     17 C        2379.0300 2473.6200    0.0000 C.3     1  UNL1        0.0720
     18 N        2413.5300 2453.4900    0.0000 N.3     1  UNL1       -0.2751
     19 C        2413.5300 2413.2400    0.0000 C.3     1  UNL1        0.0720
     20 C        2448.1400 2393.0100    0.0000 C.3     1  UNL1        0.0175
     21 C        2482.6500 2413.2400    0.0000 C.3     1  UNL1        0.0063
@<TRIPOS>BOND
     1     1     2    1
     2     2     3    1
     3     2     4    2
     4     5     1    1
     5     5     6    1
     6     5    10    1
     7     6     7    1
     8     6    21    1
     9     7     8    1
    10     7    13    1
    11     7    18    1
    12     8    15    1
    13     9     8    1
    14     9    11    1
    15    10     9    1
    16    11    12    1
    17    12    14    1
    18    13    12    1
    19    15    16    1
    20    17    16    1
    21    18    17    1
    22    18    19    1
    23    20    19    1
    24    21    20    1
