@<TRIPOS>MOLECULE
IMPHY000301
 35 37 0 0 0
SMALL
GASTEIGER

@<TRIPOS>ATOM
      1 O           3.7230   -0.4117    0.0000 O.3     1  UNL1       -0.4569
      2 O           2.0000    0.0205    0.0000 O.2     1  UNL1       -0.2453
      3 C           5.4786   -0.3379    0.0000 C.3     1  UNL1        0.0243
      4 C           6.3796    0.0960    0.0000 C.3     1  UNL1       -0.0068
      5 C           4.5777    0.0960    0.0000 C.3     1  UNL1        0.1173
      6 C           4.3551    1.0709    0.0000 C.3     1  UNL1        0.0283
      7 C           7.0647   -0.6243    0.0000 C.3     1  UNL1       -0.0273
      8 C           4.9786    1.8527    0.0000 C.3     1  UNL1       -0.0389
      9 C           5.6146   -1.3227    0.0000 C.2     1  UNL1       -0.0694
     10 C           6.6021    1.0709    0.0000 C.2     1  UNL1       -0.0725
     11 C           5.9786    1.8527    0.0000 C.3     1  UNL1       -0.0310
     12 C           6.5929   -1.4993    0.0000 C.2     1  UNL1       -0.0840
     13 C           3.3648    1.1574    0.0000 C.2     1  UNL1        0.0361
     14 C           2.9749    0.2430    0.0000 C.2     1  UNL1        0.3353
     15 C           4.8930   -2.0150    0.0000 C.3     1  UNL1       -0.0434
     16 C           7.5770    1.2934    0.0000 C.2     1  UNL1       -0.0992
     17 C           2.8504    2.0150    0.0000 C.2     1  UNL1       -0.0883
     18 H           4.7916   -0.8384    0.0000 H       1  UNL1        0.0387
     19 H           7.1993    0.3210    0.0000 H       1  UNL1        0.0355
     20 H           4.6147   -0.7532    0.0000 H       1  UNL1        0.0746
     21 H           4.0200    1.8520    0.0000 H       1  UNL1        0.0387
     22 H           7.5765   -0.9743    0.0000 H       1  UNL1        0.0313
     23 H           7.4666   -0.1522    0.0000 H       1  UNL1        0.0313
     24 H           5.1166    2.4572    0.0000 H       1  UNL1        0.0275
     25 H           4.4200    2.1217    0.0000 H       1  UNL1        0.0275
     26 H           6.5372    2.1217    0.0000 H       1  UNL1        0.0310
     27 H           5.8407    2.4572    0.0000 H       1  UNL1        0.0310
     28 H           6.8619   -2.0579    0.0000 H       1  UNL1        0.0572
     29 H           4.4638   -1.5676    0.0000 H       1  UNL1        0.0274
     30 H           4.4456   -2.4442    0.0000 H       1  UNL1        0.0274
     31 H           5.3223   -2.4624    0.0000 H       1  UNL1        0.0274
     32 H           7.9988    0.8389    0.0000 H       1  UNL1        0.0534
     33 H           7.7598    1.8859    0.0000 H       1  UNL1        0.0534
     34 H           3.1514    2.5570    0.0000 H       1  UNL1        0.0540
     35 H           2.2305    2.0046    0.0000 H       1  UNL1        0.0540
@<TRIPOS>BOND
     1     1     5    1
     2     1    14    1
     3     2    14    2
     4     3     4    1
     5     3     5    1
     6     3     9    1
     7     3    18    1
     8     4     7    1
     9     4    10    1
    10     4    19    1
    11     5     6    1
    12     5    20    1
    13     6     8    1
    14     6    13    1
    15     6    21    1
    16     7    12    1
    17     7    22    1
    18     7    23    1
    19     8    11    1
    20     8    24    1
    21     8    25    1
    22     9    12    2
    23     9    15    1
    24    10    11    1
    25    10    16    2
    26    11    26    1
    27    11    27    1
    28    12    28    1
    29    13    14    1
    30    13    17    2
    31    15    29    1
    32    15    30    1
    33    15    31    1
    34    16    32    1
    35    16    33    1
    36    17    34    1
    37    17    35    1
