@<TRIPOS>MOLECULE
IMPHY011088
 39 40 0 0 0
SMALL
GASTEIGER

@<TRIPOS>ATOM
      1 C           3.7320    0.7500    0.0000 C.3     1  UNL1       -0.0314
      2 C           3.7320   -0.2500    0.0000 C.3     1  UNL1       -0.0131
      3 C           2.8660    1.2500    0.0000 C.3     1  UNL1       -0.0405
      4 C           2.8660   -0.7500    0.0000 C.3     1  UNL1       -0.0139
      5 C           2.0000    0.7500    0.0000 C.3     1  UNL1       -0.0496
      6 C           2.0000   -0.2500    0.0000 C.3     1  UNL1       -0.0457
      7 C           4.6260    1.2847    0.0000 C.3     1  UNL1       -0.0457
      8 C           4.6260   -0.7847    0.0000 C.2     1  UNL1       -0.0811
      9 C           5.5321    0.7708    0.0000 C.3     1  UNL1       -0.0317
     10 C           2.8660    2.2500    0.0000 C.3     1  UNL1       -0.0621
     11 C           5.5321   -0.2708    0.0000 C.2     1  UNL1       -0.0762
     12 C           2.8660   -1.7500    0.0000 C.2     1  UNL1       -0.0760
     13 C           6.3961   -0.7742    0.0000 C.3     1  UNL1       -0.0438
     14 C           2.0000   -2.2500    0.0000 C.3     1  UNL1       -0.0438
     15 C           3.7320   -2.2500    0.0000 C.2     1  UNL1       -0.0994
     16 H           3.7255    1.6000    0.0000 H       1  UNL1        0.0309
     17 H           3.7255   -1.1000    0.0000 H       1  UNL1        0.0352
     18 H           2.3291    1.5600    0.0000 H       1  UNL1        0.0301
     19 H           2.3291   -1.0600    0.0000 H       1  UNL1        0.0351
     20 H           1.7880    1.3326    0.0000 H       1  UNL1        0.0268
     21 H           1.3894    0.6423    0.0000 H       1  UNL1        0.0268
     22 H           1.3894   -0.1423    0.0000 H       1  UNL1        0.0271
     23 H           1.7880   -0.8326    0.0000 H       1  UNL1        0.0271
     24 H           5.0196    1.7637    0.0000 H       1  UNL1        0.0271
     25 H           4.2214    1.7544    0.0000 H       1  UNL1        0.0271
     26 H           4.6188   -1.4046    0.0000 H       1  UNL1        0.0575
     27 H           6.1429    0.6647    0.0000 H       1  UNL1        0.0310
     28 H           5.7411    1.3545    0.0000 H       1  UNL1        0.0310
     29 H           3.4860    2.2500    0.0000 H       1  UNL1        0.0233
     30 H           2.8660    2.8700    0.0000 H       1  UNL1        0.0233
     31 H           2.2460    2.2500    0.0000 H       1  UNL1        0.0233
     32 H           6.0841   -1.3099    0.0000 H       1  UNL1        0.0274
     33 H           6.9319   -1.0862    0.0000 H       1  UNL1        0.0274
     34 H           6.7082   -0.2384    0.0000 H       1  UNL1        0.0274
     35 H           1.6900   -1.7131    0.0000 H       1  UNL1        0.0274
     36 H           1.4631   -2.5600    0.0000 H       1  UNL1        0.0274
     37 H           2.3100   -2.7869    0.0000 H       1  UNL1        0.0274
     38 H           3.7320   -2.8700    0.0000 H       1  UNL1        0.0534
     39 H           4.2690   -1.9400    0.0000 H       1  UNL1        0.0534
@<TRIPOS>BOND
     1     1     2    1
     2     1     3    1
     3     1     7    1
     4     1    16    1
     5     2     4    1
     6     2     8    1
     7     2    17    1
     8     3     5    1
     9     3    10    1
    10     3    18    1
    11     4     6    1
    12     4    12    1
    13     4    19    1
    14     5     6    1
    15     5    20    1
    16     5    21    1
    17     6    22    1
    18     6    23    1
    19     7     9    1
    20     7    24    1
    21     7    25    1
    22     8    11    2
    23     8    26    1
    24     9    11    1
    25     9    27    1
    26     9    28    1
    27    10    29    1
    28    10    30    1
    29    10    31    1
    30    11    13    1
    31    12    14    1
    32    12    15    2
    33    13    32    1
    34    13    33    1
    35    13    34    1
    36    14    35    1
    37    14    36    1
    38    14    37    1
    39    15    38    1
    40    15    39    1
