@<TRIPOS>MOLECULE
IMPHY015491
 27 28 0 0 0
SMALL
GASTEIGER

@<TRIPOS>ATOM
      1 O           2.2212    0.1300    0.0000 O.3     1  UNL1       -0.3730
      2 C           3.7601    0.6300    0.0000 C.3     1  UNL1        0.0039
      3 C           3.7601   -0.3700    0.0000 C.3     1  UNL1        0.0024
      4 C           4.6266    0.1300    0.0000 C.3     1  UNL1       -0.0093
      5 C           2.8090   -0.6790    0.0000 C.3     1  UNL1        0.0679
      6 C           2.8090    0.9391    0.0000 C.3     1  UNL1        0.0546
      7 C           3.7601    1.6300    0.0000 C.3     1  UNL1       -0.0566
      8 C           5.6266    0.1300    0.0000 C.2     1  UNL1       -0.0870
      9 C           2.0000   -1.2668    0.0000 C.3     1  UNL1       -0.0358
     10 C           3.1180   -1.6300    0.0000 C.3     1  UNL1       -0.0358
     11 C           6.1266   -0.7360    0.0000 C.2     1  UNL1       -0.1023
     12 H           4.0122   -0.9364    0.0000 H       1  UNL1        0.0340
     13 H           4.7870   -0.4689    0.0000 H       1  UNL1        0.0353
     14 H           3.0612    1.5054    0.0000 H       1  UNL1        0.0566
     15 H           2.2721    1.2490    0.0000 H       1  UNL1        0.0566
     16 H           4.3801    1.6300    0.0000 H       1  UNL1        0.0236
     17 H           3.7601    2.2500    0.0000 H       1  UNL1        0.0236
     18 H           3.1401    1.6300    0.0000 H       1  UNL1        0.0236
     19 H           5.9366    0.6670    0.0000 H       1  UNL1        0.0569
     20 H           1.6356   -0.7652    0.0000 H       1  UNL1        0.0257
     21 H           1.4984   -1.6312    0.0000 H       1  UNL1        0.0257
     22 H           2.3644   -1.7684    0.0000 H       1  UNL1        0.0257
     23 H           2.5284   -1.8216    0.0000 H       1  UNL1        0.0257
     24 H           3.3096   -2.2197    0.0000 H       1  UNL1        0.0257
     25 H           3.7077   -1.4384    0.0000 H       1  UNL1        0.0257
     26 H           5.8166   -1.2729    0.0000 H       1  UNL1        0.0532
     27 H           6.7466   -0.7360    0.0000 H       1  UNL1        0.0532
@<TRIPOS>BOND
     1     1     5    1
     2     1     6    1
     3     2     3    1
     4     2     4    1
     5     2     6    1
     6     2     7    1
     7     3     4    1
     8     3     5    1
     9     3    12    1
    10     4     8    1
    11     4    13    1
    12     5     9    1
    13     5    10    1
    14     6    14    1
    15     6    15    1
    16     7    16    1
    17     7    17    1
    18     7    18    1
    19     8    11    2
    20     8    19    1
    21     9    20    1
    22     9    21    1
    23     9    22    1
    24    10    23    1
    25    10    24    1
    26    10    25    1
    27    11    26    1
    28    11    27    1
