@<TRIPOS>MOLECULE
IMPHY014098
 36 38 0 0 0
SMALL
GASTEIGER

@<TRIPOS>ATOM
      1 O           6.3981   -0.9031    0.0000 O.2     1  UNL1       -0.4505
      2 O           4.6497   -1.9377    0.0000 O.3     1  UNL1       -0.4885
      3 O           2.8680   -0.9273    0.0000 O.3     1  UNL1       -0.4913
      4 O           6.3981    2.0969    0.0000 O.2     1  UNL1       -0.2863
      5 O           8.1465    2.1315    0.0000 O.3     1  UNL1       -0.5058
      6 O           9.9282   -0.9273    0.0000 O.3     1  UNL1       -0.4949
      7 C           5.5320    0.5969    0.0000 C.ar    1  UNL1        0.0686
      8 C           7.2641    0.5969    0.0000 C.ar    1  UNL1        0.1061
      9 C           5.5320   -0.4031    0.0000 C.ar    1  UNL1        0.1843
     10 C           7.2641   -0.4031    0.0000 C.ar    1  UNL1        0.1464
     11 C           6.3981    1.0969    0.0000 C.ar    1  UNL1        0.2038
     12 C           4.6381   -0.9378    0.0000 C.ar    1  UNL1        0.2049
     13 C           8.1580    1.1316    0.0000 C.ar    1  UNL1        0.1347
     14 C           4.6381    1.1316    0.0000 C.ar    1  UNL1       -0.0437
     15 C           8.1580   -0.9378    0.0000 C.ar    1  UNL1        0.0233
     16 C           3.7320   -0.4239    0.0000 C.ar    1  UNL1        0.1652
     17 C           3.7320    0.6177    0.0000 C.ar    1  UNL1       -0.0154
     18 C           9.0641   -0.4239    0.0000 C.ar    1  UNL1        0.1271
     19 C           9.0641    0.6177    0.0000 C.ar    1  UNL1        0.0225
     20 C           3.7895   -2.4477    0.0000 C.3     1  UNL1        0.0791
     21 C           2.0000   -0.4306    0.0000 C.3     1  UNL1        0.0790
     22 C          10.7961   -0.4306    0.0000 C.3     1  UNL1        0.0788
     23 H           4.6453    1.7515    0.0000 H       1  UNL1        0.0627
     24 H           8.1509   -1.5577    0.0000 H       1  UNL1        0.0691
     25 H           3.1963    0.9298    0.0000 H       1  UNL1        0.0655
     26 H           9.5998    0.9298    0.0000 H       1  UNL1        0.0691
     27 H           8.6798    2.4477    0.0000 H       1  UNL1        0.2922
     28 H           3.4733   -1.9144    0.0000 H       1  UNL1        0.0660
     29 H           3.2562   -2.7639    0.0000 H       1  UNL1        0.0660
     30 H           4.1057   -2.9810    0.0000 H       1  UNL1        0.0660
     31 H           2.3079    0.1075    0.0000 H       1  UNL1        0.0660
     32 H           1.4619   -0.1227    0.0000 H       1  UNL1        0.0660
     33 H           1.6921   -0.9687    0.0000 H       1  UNL1        0.0660
     34 H          11.1041   -0.9687    0.0000 H       1  UNL1        0.0660
     35 H          11.3343   -0.1227    0.0000 H       1  UNL1        0.0660
     36 H          10.4882    0.1075    0.0000 H       1  UNL1        0.0660
@<TRIPOS>BOND
     1     1     9   ar
     2     1    10   ar
     3     2    12    1
     4     2    20    1
     5     3    16    1
     6     3    21    1
     7     4    11    2
     8     5    13    1
     9     5    27    1
    10     6    18    1
    11     6    22    1
    12     7     9   ar
    13     7    11   ar
    14     7    14   ar
    15     8    10   ar
    16     8    11   ar
    17     8    13   ar
    18     9    12   ar
    19    10    15   ar
    20    12    16   ar
    21    13    19   ar
    22    14    17   ar
    23    14    23    1
    24    15    18   ar
    25    15    24    1
    26    16    17   ar
    27    17    25    1
    28    18    19   ar
    29    19    26    1
    30    20    28    1
    31    20    29    1
    32    20    30    1
    33    21    31    1
    34    21    32    1
    35    21    33    1
    36    22    34    1
    37    22    35    1
    38    22    36    1
