@<TRIPOS>MOLECULE
IMPHY007135
 16 16 0 0 0
SMALL
GASTEIGER

@<TRIPOS>ATOM
      1 O           6.0010   -0.6900    0.0000 O.2     1  UNL1       -0.2447
      2 N           4.2690   -0.6900    0.0000 N.ar    1  UNL1       -0.2945
      3 N           2.5369   -0.6900    0.0000 N.pl3   1  UNL1       -0.3443
      4 N           5.1350    0.8100    0.0000 N.ar    1  UNL1       -0.2012
      5 C           3.4030    0.8100    0.0000 C.ar    1  UNL1        0.0055
      6 C           3.4030   -0.1900    0.0000 C.ar    1  UNL1        0.1018
      7 C           2.5369    1.3100    0.0000 C.3     1  UNL1       -0.0351
      8 C           4.2690    1.3100    0.0000 C.ar    1  UNL1        0.0391
      9 C           5.1350   -0.1900    0.0000 C.ar    1  UNL1        0.3471
     10 H           4.2690   -1.3100    0.0000 H       1  UNL1        0.1716
     11 H           2.8469    1.8469    0.0000 H       1  UNL1        0.0279
     12 H           2.0000    1.6200    0.0000 H       1  UNL1        0.0279
     13 H           2.2269    0.7731    0.0000 H       1  UNL1        0.0279
     14 H           4.2690    1.9300    0.0000 H       1  UNL1        0.0835
     15 H           2.5369   -1.3100    0.0000 H       1  UNL1        0.1437
     16 H           2.0000   -0.3800    0.0000 H       1  UNL1        0.1437
@<TRIPOS>BOND
     1     1     9    2
     2     2     6   ar
     3     2     9   ar
     4     2    10    1
     5     3     6    1
     6     3    15    1
     7     3    16    1
     8     4     8   ar
     9     4     9   ar
    10     5     6   ar
    11     5     7    1
    12     5     8   ar
    13     7    11    1
    14     7    12    1
    15     7    13    1
    16     8    14    1
