@<TRIPOS>MOLECULE
IMPHY006791
 35 38 0 0 0
SMALL
GASTEIGER

@<TRIPOS>ATOM
      1 O           3.9187   -1.6050    0.0000 O.3     1  UNL1       -0.3487
      2 O           2.5049    0.3410    0.0000 O.3     1  UNL1       -0.4516
      3 O           1.2448   -0.9190    0.0000 O.2     1  UNL1       -0.2475
      4 O           5.7813    1.5069    0.0000 O.2     1  UNL1       -0.4668
      5 C           3.0049   -1.1978    0.0000 C.3     1  UNL1        0.1958
      6 C           3.8139   -0.6100    0.0000 C.3     1  UNL1        0.1405
      7 C           3.5049    0.3410    0.0000 C.3     1  UNL1        0.1608
      8 C           3.2128   -2.1760    0.0000 C.3     1  UNL1       -0.0071
      9 C           2.1959   -0.6100    0.0000 C.2     1  UNL1        0.3429
     10 C           4.2480    1.0102    0.0000 C.ar    1  UNL1        0.0395
     11 C           4.1286   -2.5934    0.0000 C.3     1  UNL1       -0.0313
     12 C           5.1991    0.7011    0.0000 C.ar    1  UNL1        0.1158
     13 C           4.2506    2.0042    0.0000 C.ar    1  UNL1       -0.0057
     14 C           4.8718   -1.9243    0.0000 C.2     1  UNL1       -0.0845
     15 C           5.4070   -0.2770    0.0000 C.3     1  UNL1        0.0268
     16 C           4.6639   -0.9461    0.0000 C.2     1  UNL1       -0.0693
     17 C           5.1963    2.3106    0.0000 C.ar    1  UNL1        0.0954
     18 C           3.4426    2.5934    0.0000 C.3     1  UNL1       -0.0363
     19 C           3.3324   -0.5135    0.0000 C.3     1  UNL1       -0.0434
     20 H           4.5016   -0.1104    0.0000 H       1  UNL1        0.0672
     21 H           3.2422    1.1494    0.0000 H       1  UNL1        0.0814
     22 H           3.0803   -2.7816    0.0000 H       1  UNL1        0.0302
     23 H           2.5928   -2.1741    0.0000 H       1  UNL1        0.0302
     24 H           4.6024   -2.9933    0.0000 H       1  UNL1        0.0308
     25 H           3.7970   -3.1173    0.0000 H       1  UNL1        0.0308
     26 H           5.4614   -2.1159    0.0000 H       1  UNL1        0.0572
     27 H           5.9819   -0.0448    0.0000 H       1  UNL1        0.0389
     28 H           5.7356   -0.8028    0.0000 H       1  UNL1        0.0389
     29 H           5.3879    2.9003    0.0000 H       1  UNL1        0.1032
     30 H           3.0773    2.0925    0.0000 H       1  UNL1        0.0279
     31 H           2.9417    2.9587    0.0000 H       1  UNL1        0.0279
     32 H           3.8079    3.0944    0.0000 H       1  UNL1        0.0279
     33 H           3.1408   -1.1032    0.0000 H       1  UNL1        0.0274
     34 H           2.7427   -0.3219    0.0000 H       1  UNL1        0.0274
     35 H           3.5240    0.0761    0.0000 H       1  UNL1        0.0274
@<TRIPOS>BOND
     1     5     1    1
     2     1     6    1
     3     2     7    1
     4     2     9    1
     5     3     9    2
     6     4    12   ar
     7     4    17   ar
     8     5     6    1
     9     5     8    1
    10     5     9    1
    11     6     7    1
    12     6    20    1
    13     7    10    1
    14     7    21    1
    15     8    11    1
    16     8    22    1
    17     8    23    1
    18    10    12   ar
    19    10    13   ar
    20    11    14    1
    21    11    24    1
    22    11    25    1
    23    12    15    1
    24    13    17   ar
    25    13    18    1
    26    14    16    2
    27    14    26    1
    28    15    16    1
    29    15    27    1
    30    15    28    1
    31    16    19    1
    32    17    29    1
    33    18    30    1
    34    18    31    1
    35    18    32    1
    36    19    33    1
    37    19    34    1
    38    19    35    1
