@<TRIPOS>MOLECULE
IMPHY004356
 38 37 0 0 0
SMALL
GASTEIGER

@<TRIPOS>ATOM
      1 O          13.2583    0.2500    0.0000 O.2     1  UNL1       -0.2963
      2 C           6.3301    0.2500    0.0000 C.3     1  UNL1       -0.0531
      3 C           5.4641   -0.2500    0.0000 C.3     1  UNL1       -0.0531
      4 C           7.1962   -0.2500    0.0000 C.3     1  UNL1       -0.0530
      5 C           4.5981    0.2500    0.0000 C.3     1  UNL1       -0.0531
      6 C           8.0622    0.2500    0.0000 C.3     1  UNL1       -0.0528
      7 C           3.7320   -0.2500    0.0000 C.3     1  UNL1       -0.0533
      8 C           8.9282   -0.2500    0.0000 C.3     1  UNL1       -0.0496
      9 C           2.8660    0.2500    0.0000 C.3     1  UNL1       -0.0559
     10 C           9.7942    0.2500    0.0000 C.3     1  UNL1       -0.0344
     11 C           2.0000   -0.2500    0.0000 C.3     1  UNL1       -0.0653
     12 C          10.6603   -0.2500    0.0000 C.2     1  UNL1       -0.0810
     13 C          11.5263    0.2500    0.0000 C.2     1  UNL1       -0.0264
     14 C          12.3923   -0.2500    0.0000 C.2     1  UNL1        0.1428
     15 H           6.7287    0.7249    0.0000 H       1  UNL1        0.0265
     16 H           5.9316    0.7249    0.0000 H       1  UNL1        0.0265
     17 H           5.0656   -0.7249    0.0000 H       1  UNL1        0.0265
     18 H           5.8626   -0.7249    0.0000 H       1  UNL1        0.0265
     19 H           6.7976   -0.7249    0.0000 H       1  UNL1        0.0265
     20 H           7.5947   -0.7249    0.0000 H       1  UNL1        0.0265
     21 H           4.9966    0.7249    0.0000 H       1  UNL1        0.0265
     22 H           4.1996    0.7249    0.0000 H       1  UNL1        0.0265
     23 H           8.4607    0.7249    0.0000 H       1  UNL1        0.0265
     24 H           7.6636    0.7249    0.0000 H       1  UNL1        0.0265
     25 H           3.3335   -0.7249    0.0000 H       1  UNL1        0.0265
     26 H           4.1306   -0.7249    0.0000 H       1  UNL1        0.0265
     27 H           8.5297   -0.7249    0.0000 H       1  UNL1        0.0268
     28 H           9.3267   -0.7249    0.0000 H       1  UNL1        0.0268
     29 H           3.2646    0.7249    0.0000 H       1  UNL1        0.0263
     30 H           2.4675    0.7249    0.0000 H       1  UNL1        0.0263
     31 H          10.1928    0.7249    0.0000 H       1  UNL1        0.0307
     32 H           9.3957    0.7249    0.0000 H       1  UNL1        0.0307
     33 H           1.6900    0.2869    0.0000 H       1  UNL1        0.0230
     34 H           1.4631   -0.5600    0.0000 H       1  UNL1        0.0230
     35 H           2.3100   -0.7869    0.0000 H       1  UNL1        0.0230
     36 H          10.6603   -0.8700    0.0000 H       1  UNL1        0.0573
     37 H          11.5263    0.8700    0.0000 H       1  UNL1        0.0646
     38 H          12.3923   -0.8700    0.0000 H       1  UNL1        0.1075
@<TRIPOS>BOND
     1     1    14    2
     2     2     3    1
     3     2     4    1
     4     2    15    1
     5     2    16    1
     6     3     5    1
     7     3    17    1
     8     3    18    1
     9     4     6    1
    10     4    19    1
    11     4    20    1
    12     5     7    1
    13     5    21    1
    14     5    22    1
    15     6     8    1
    16     6    23    1
    17     6    24    1
    18     7     9    1
    19     7    25    1
    20     7    26    1
    21     8    10    1
    22     8    27    1
    23     8    28    1
    24     9    11    1
    25     9    29    1
    26     9    30    1
    27    10    12    1
    28    10    31    1
    29    10    32    1
    30    11    33    1
    31    11    34    1
    32    11    35    1
    33    12    13    2
    34    12    36    1
    35    13    14    1
    36    13    37    1
    37    14    38    1
