@<TRIPOS>MOLECULE
IMPHY002148
 82 87 0 0 0
SMALL
GASTEIGER

@<TRIPOS>ATOM
      1 O          10.9593    2.1001    0.0000 O.3     1  UNL1       -0.4577
      2 O           2.5357   -2.6402    0.0000 O.3     1  UNL1       -0.3887
      3 O           2.5526   -0.4563    0.0000 O.3     1  UNL1       -0.3892
      4 O          11.8253    0.6001    0.0000 O.2     1  UNL1       -0.2502
      5 C           8.3092   -0.4484    0.0000 C.3     1  UNL1       -0.0233
      6 C           7.3738   -0.9981    0.0000 C.3     1  UNL1       -0.0231
      7 C           8.3172    0.5932    0.0000 C.3     1  UNL1       -0.0309
      8 C           6.4342   -0.4556    0.0000 C.3     1  UNL1       -0.0294
      9 C           9.2273    1.1001    0.0000 C.3     1  UNL1       -0.0157
     10 C           5.4468   -1.0055    0.0000 C.3     1  UNL1       -0.0229
     11 C          10.0933    0.6001    0.0000 C.3     1  UNL1        0.0714
     12 C           5.4381   -2.1357    0.0000 C.3     1  UNL1       -0.0277
     13 C           9.2113   -0.9692    0.0000 C.3     1  UNL1       -0.0458
     14 C           7.3904    1.1573    0.0000 C.3     1  UNL1       -0.0491
     15 C           7.3912   -2.1281    0.0000 C.3     1  UNL1       -0.0466
     16 C           6.4425    0.6294    0.0000 C.3     1  UNL1       -0.0489
     17 C           9.2273    2.1001    0.0000 C.3     1  UNL1        0.0000
     18 C          10.1093   -0.4414    0.0000 C.3     1  UNL1       -0.0364
     19 C           6.4169   -2.7008    0.0000 C.3     1  UNL1       -0.0486
     20 C           4.4232   -2.7321    0.0000 C.3     1  UNL1       -0.0032
     21 C          10.0933    2.6001    0.0000 C.3     1  UNL1        0.1136
     22 C           4.4412   -0.3935    0.0000 C.3     1  UNL1       -0.0184
     23 C           9.6933    1.2001    0.0000 C.3     1  UNL1       -0.0334
     24 C           8.6441   -1.3906    0.0000 C.3     1  UNL1       -0.0588
     25 C           8.0166   -1.7642    0.0000 C.3     1  UNL1       -0.0588
     26 C           9.6933    2.0001    0.0000 C.3     1  UNL1       -0.0118
     27 C           5.4545   -0.0056    0.0000 C.3     1  UNL1       -0.0589
     28 C          10.9593    1.1001    0.0000 C.2     1  UNL1        0.3141
     29 C           3.4037   -2.1435    0.0000 C.3     1  UNL1        0.0864
     30 C           3.4128   -0.9663    0.0000 C.3     1  UNL1        0.0821
     31 C           8.3612    2.6001    0.0000 C.3     1  UNL1       -0.0585
     32 C           3.9265   -3.6001    0.0000 C.3     1  UNL1       -0.0571
     33 C           4.9265   -3.5962    0.0000 C.3     1  UNL1       -0.0571
     34 C          10.0933    3.6001    0.0000 C.3     1  UNL1       -0.0246
     35 H           9.0484    0.1597    0.0000 H       1  UNL1        0.0309
     36 H           7.1719   -0.0335    0.0000 H       1  UNL1        0.0312
     37 H           8.4911    1.5251    0.0000 H       1  UNL1        0.0318
     38 H           5.4414   -2.9857    0.0000 H       1  UNL1        0.0312
     39 H           8.8140   -1.4452    0.0000 H       1  UNL1        0.0271
     40 H           9.6123   -1.4421    0.0000 H       1  UNL1        0.0271
     41 H           7.7986    1.6240    0.0000 H       1  UNL1        0.0268
     42 H           7.0005    1.6393    0.0000 H       1  UNL1        0.0268
     43 H           7.6092   -2.7085    0.0000 H       1  UNL1        0.0271
     44 H           8.0004   -2.0126    0.0000 H       1  UNL1        0.0271
     45 H           6.2380    1.2146    0.0000 H       1  UNL1        0.0268
     46 H           5.8309    0.5280    0.0000 H       1  UNL1        0.0268
     47 H           9.2273    2.7201    0.0000 H       1  UNL1        0.0340
     48 H          10.3274   -1.0218    0.0000 H       1  UNL1        0.0276
     49 H          10.7185   -0.3259    0.0000 H       1  UNL1        0.0276
     50 H           6.0196   -3.1767    0.0000 H       1  UNL1        0.0268
     51 H           6.8178   -3.1736    0.0000 H       1  UNL1        0.0268
     52 H           4.8494    0.0731    0.0000 H       1  UNL1        0.0296
     53 H           4.0513    0.0885    0.0000 H       1  UNL1        0.0296
     54 H           9.1062    1.3996    0.0000 H       1  UNL1        0.0277
     55 H          10.2867    1.3797    0.0000 H       1  UNL1        0.0277
     56 H           8.0599   -1.5983    0.0000 H       1  UNL1        0.0235
     57 H           8.8517   -1.9749    0.0000 H       1  UNL1        0.0235
     58 H           9.2283   -1.1830    0.0000 H       1  UNL1        0.0235
     59 H           7.5416   -2.1627    0.0000 H       1  UNL1        0.0235
     60 H           8.4151   -2.2391    0.0000 H       1  UNL1        0.0235
     61 H           8.4915   -1.3656    0.0000 H       1  UNL1        0.0235
     62 H           9.3155    2.4917    0.0000 H       1  UNL1        0.0304
     63 H          10.2867    1.8204    0.0000 H       1  UNL1        0.0304
     64 H           6.0745   -0.0103    0.0000 H       1  UNL1        0.0235
     65 H           5.4593    0.6144    0.0000 H       1  UNL1        0.0235
     66 H           4.8346   -0.0008    0.0000 H       1  UNL1        0.0235
     67 H           3.4025   -2.7635    0.0000 H       1  UNL1        0.0624
     68 H           2.8729   -1.2711    0.0000 H       1  UNL1        0.0619
     69 H           8.6712    3.1370    0.0000 H       1  UNL1        0.0234
     70 H           7.8243    2.9101    0.0000 H       1  UNL1        0.0234
     71 H           8.0512    2.0631    0.0000 H       1  UNL1        0.0234
     72 H           3.3884   -3.2921    0.0000 H       1  UNL1        0.0236
     73 H           3.6186   -4.1382    0.0000 H       1  UNL1        0.0236
     74 H           4.4646   -3.9080    0.0000 H       1  UNL1        0.0236
     75 H           4.3908   -3.9083    0.0000 H       1  UNL1        0.0236
     76 H           5.2386   -4.1319    0.0000 H       1  UNL1        0.0236
     77 H           5.4622   -3.2841    0.0000 H       1  UNL1        0.0236
     78 H          10.7133    3.6001    0.0000 H       1  UNL1        0.0268
     79 H          10.0933    4.2201    0.0000 H       1  UNL1        0.0268
     80 H           9.4733    3.6001    0.0000 H       1  UNL1        0.0268
     81 H           2.0000   -2.3281    0.0000 H       1  UNL1        0.2099
     82 H           2.5597    0.1636    0.0000 H       1  UNL1        0.2099
@<TRIPOS>BOND
     1     1    21    1
     2     1    28    1
     3    29     2    1
     4     2    81    1
     5    30     3    1
     6     3    82    1
     7     4    28    2
     8     5     6    1
     9     5     7    1
    10     5    13    1
    11     5    24    1
    12     6     8    1
    13     6    15    1
    14     6    25    1
    15     7     9    1
    16     7    14    1
    17     7    35    1
    18     8    10    1
    19     8    16    1
    20     8    36    1
    21     9    11    1
    22     9    17    1
    23     9    37    1
    24    10    12    1
    25    10    22    1
    26    10    27    1
    27    11    18    1
    28    11    23    1
    29    11    28    1
    30    12    19    1
    31    12    20    1
    32    12    38    1
    33    13    18    1
    34    13    39    1
    35    13    40    1
    36    14    16    1
    37    14    41    1
    38    14    42    1
    39    15    19    1
    40    15    43    1
    41    15    44    1
    42    16    45    1
    43    16    46    1
    44    17    21    1
    45    17    31    1
    46    17    47    1
    47    18    48    1
    48    18    49    1
    49    19    50    1
    50    19    51    1
    51    20    29    1
    52    20    32    1
    53    20    33    1
    54    21    26    1
    55    21    34    1
    56    22    30    1
    57    22    52    1
    58    22    53    1
    59    23    26    1
    60    23    54    1
    61    23    55    1
    62    24    56    1
    63    24    57    1
    64    24    58    1
    65    25    59    1
    66    25    60    1
    67    25    61    1
    68    26    62    1
    69    26    63    1
    70    27    64    1
    71    27    65    1
    72    27    66    1
    73    29    30    1
    74    29    67    1
    75    30    68    1
    76    31    69    1
    77    31    70    1
    78    31    71    1
    79    32    72    1
    80    32    73    1
    81    32    74    1
    82    33    75    1
    83    33    76    1
    84    33    77    1
    85    34    78    1
    86    34    79    1
    87    34    80    1
