@<TRIPOS>MOLECULE
IMPHY003235
 26 28 0 0 0
SMALL
GASTEIGER

@<TRIPOS>ATOM
      1 O           4.6660    2.0000    0.0000 O.2     1  UNL1       -0.2866
      2 O           4.6660   -2.0000    0.0000 O.2     1  UNL1       -0.2866
      3 O           9.0641    0.5275    0.0000 O.2     1  UNL1       -0.2957
      4 C           5.5321    0.5000    0.0000 C.ar    1  UNL1        0.0337
      5 C           5.5321   -0.5000    0.0000 C.ar    1  UNL1        0.0331
      6 C           3.8000    0.5000    0.0000 C.ar    1  UNL1        0.0331
      7 C           3.8000   -0.5000    0.0000 C.ar    1  UNL1        0.0331
      8 C           4.6660    1.0000    0.0000 C.2     1  UNL1        0.1945
      9 C           4.6660   -1.0000    0.0000 C.2     1  UNL1        0.1945
     10 C           6.4260    1.0347    0.0000 C.ar    1  UNL1       -0.0400
     11 C           6.4260   -1.0347    0.0000 C.ar    1  UNL1       -0.0496
     12 C           2.9061    1.0347    0.0000 C.ar    1  UNL1       -0.0502
     13 C           2.9061   -1.0347    0.0000 C.ar    1  UNL1       -0.0502
     14 C           7.3321    0.5208    0.0000 C.ar    1  UNL1        0.0149
     15 C           7.3321   -0.5208    0.0000 C.ar    1  UNL1       -0.0508
     16 C           2.0000    0.5208    0.0000 C.ar    1  UNL1       -0.0610
     17 C           2.0000   -0.5208    0.0000 C.ar    1  UNL1       -0.0610
     18 C           8.1962    1.0241    0.0000 C.2     1  UNL1        0.1502
     19 H           6.4188    1.6546    0.0000 H       1  UNL1        0.0632
     20 H           6.4188   -1.6546    0.0000 H       1  UNL1        0.0625
     21 H           2.9132    1.6546    0.0000 H       1  UNL1        0.0625
     22 H           2.9132   -1.6546    0.0000 H       1  UNL1        0.0625
     23 H           7.8678   -0.8329    0.0000 H       1  UNL1        0.0625
     24 H           1.4643    0.8329    0.0000 H       1  UNL1        0.0618
     25 H           1.4643   -0.8329    0.0000 H       1  UNL1        0.0618
     26 H           8.1938    1.6442    0.0000 H       1  UNL1        0.1081
@<TRIPOS>BOND
     1     1     8    2
     2     2     9    2
     3     3    18    2
     4     4     5   ar
     5     4     8    1
     6     4    10   ar
     7     5     9    1
     8     5    11   ar
     9     6     7   ar
    10     6     8    1
    11     6    12   ar
    12     7     9    1
    13     7    13   ar
    14    10    14   ar
    15    10    19    1
    16    11    15   ar
    17    11    20    1
    18    12    16   ar
    19    12    21    1
    20    13    17   ar
    21    13    22    1
    22    14    15   ar
    23    14    18    1
    24    15    23    1
    25    16    17   ar
    26    16    24    1
    27    17    25    1
    28    18    26    1
