@<TRIPOS>MOLECULE
IMPHY015057
 20 20 0 0 0
SMALL
GASTEIGER

@<TRIPOS>ATOM
      1 O           5.1350   -0.8450    0.0000 O.3     1  UNL1       -0.3462
      2 O           2.5369    0.6550    0.0000 O.3     1  UNL1       -0.3864
      3 O           4.2690    1.6550    0.0000 O.3     1  UNL1       -0.3841
      4 O           2.5369   -1.3450    0.0000 O.3     1  UNL1       -0.3869
      5 O           6.0010    0.6550    0.0000 O.3     1  UNL1       -0.3649
      6 C           3.4030    0.1550    0.0000 C.3     1  UNL1        0.1137
      7 C           4.2690    0.6550    0.0000 C.3     1  UNL1        0.1339
      8 C           3.4030   -0.8450    0.0000 C.3     1  UNL1        0.1069
      9 C           5.1350    0.1550    0.0000 C.3     1  UNL1        0.1850
     10 C           4.2690   -1.3450    0.0000 C.3     1  UNL1        0.0792
     11 H           3.4030    0.7750    0.0000 H       1  UNL1        0.0647
     12 H           3.7320    0.9650    0.0000 H       1  UNL1        0.0671
     13 H           3.4030   -1.4650    0.0000 H       1  UNL1        0.0643
     14 H           5.1350    0.7750    0.0000 H       1  UNL1        0.0935
     15 H           3.8705   -1.8200    0.0000 H       1  UNL1        0.0587
     16 H           4.6675   -1.8200    0.0000 H       1  UNL1        0.0587
     17 H           2.0000    0.3450    0.0000 H       1  UNL1        0.2100
     18 H           4.8059    1.9650    0.0000 H       1  UNL1        0.2101
     19 H           2.5369   -1.9650    0.0000 H       1  UNL1        0.2100
     20 H           6.5380    0.3450    0.0000 H       1  UNL1        0.2126
@<TRIPOS>BOND
     1     1     9    1
     2     1    10    1
     3     6     2    1
     4     2    17    1
     5     7     3    1
     6     3    18    1
     7     8     4    1
     8     4    19    1
     9     5     9    1
    10     5    20    1
    11     6     7    1
    12     6     8    1
    13     6    11    1
    14     7     9    1
    15     7    12    1
    16     8    10    1
    17     8    13    1
    18     9    14    1
    19    10    15    1
    20    10    16    1
