@<TRIPOS>MOLECULE
IMPHY009473
 47 50 0 0 0
SMALL
GASTEIGER

@<TRIPOS>ATOM
      1 O           2.0000   -2.0742    0.0000 O.3     1  UNL1       -0.4526
      2 O           3.4519   -2.9125    0.0000 O.3     1  UNL1       -0.4526
      3 O           8.0322    2.7036    0.0000 O.3     1  UNL1       -0.5031
      4 O           6.2838    0.6690    0.0000 O.2     1  UNL1       -0.2917
      5 O           9.8139    1.6932    0.0000 O.3     1  UNL1       -0.4914
      6 N           5.4178    1.1690    0.0000 N.3     1  UNL1       -0.3007
      7 C           4.5518    1.6690    0.0000 C.3     1  UNL1        0.0029
      8 C           3.6857    1.1690    0.0000 C.3     1  UNL1       -0.0141
      9 C           6.2838    1.6690    0.0000 C.3     1  UNL1        0.0276
     10 C           3.6857    0.1690    0.0000 C.ar    1  UNL1       -0.0320
     11 C           7.1498    1.1690    0.0000 C.ar    1  UNL1        0.0152
     12 C           4.5518   -0.3310    0.0000 C.ar    1  UNL1        0.0246
     13 C           7.1498    0.1690    0.0000 C.ar    1  UNL1       -0.0318
     14 C           6.2838   -0.3310    0.0000 C.3     1  UNL1        0.0361
     15 C           5.4178    0.1690    0.0000 C.2     1  UNL1        0.1678
     16 C           2.7757   -0.3378    0.0000 C.ar    1  UNL1       -0.0123
     17 C           4.5678   -1.3725    0.0000 C.ar    1  UNL1       -0.0054
     18 C           8.0438    1.7037    0.0000 C.ar    1  UNL1        0.1632
     19 C           4.5518    0.6690    0.0000 C.3     1  UNL1       -0.0124
     20 C           2.7677   -1.3794    0.0000 C.ar    1  UNL1        0.1665
     21 C           3.6698   -1.9002    0.0000 C.ar    1  UNL1        0.1669
     22 C           8.0438   -0.3656    0.0000 C.ar    1  UNL1       -0.0542
     23 C           8.9498    1.1899    0.0000 C.ar    1  UNL1        0.1616
     24 C           8.9498    0.1482    0.0000 C.ar    1  UNL1       -0.0160
     25 C           2.4220   -3.0198    0.0000 C.3     1  UNL1        0.2332
     26 C          10.6819    1.1965    0.0000 C.3     1  UNL1        0.0790
     27 H           4.9503    2.1440    0.0000 H       1  UNL1        0.0430
     28 H           4.1532    2.1440    0.0000 H       1  UNL1        0.0430
     29 H           3.4737    1.7517    0.0000 H       1  UNL1        0.0326
     30 H           3.0752    1.0614    0.0000 H       1  UNL1        0.0326
     31 H           6.6823    2.1440    0.0000 H       1  UNL1        0.0477
     32 H           5.8853    2.1440    0.0000 H       1  UNL1        0.0477
     33 H           5.8853   -0.8059    0.0000 H       1  UNL1        0.0394
     34 H           6.6823   -0.8059    0.0000 H       1  UNL1        0.0394
     35 H           2.2424   -0.0216    0.0000 H       1  UNL1        0.0658
     36 H           5.1083   -1.6762    0.0000 H       1  UNL1        0.0662
     37 H           4.2418    1.2059    0.0000 H       1  UNL1        0.0391
     38 H           4.0149    0.3589    0.0000 H       1  UNL1        0.0391
     39 H           4.8619    0.1321    0.0000 H       1  UNL1        0.0391
     40 H           8.0366   -0.9856    0.0000 H       1  UNL1        0.0622
     41 H           9.4856   -0.1638    0.0000 H       1  UNL1        0.0655
     42 H           1.8324   -3.2116    0.0000 H       1  UNL1        0.1166
     43 H           2.5507   -3.6263    0.0000 H       1  UNL1        0.1166
     44 H           8.5655    3.0198    0.0000 H       1  UNL1        0.2923
     45 H          10.3740    0.6584    0.0000 H       1  UNL1        0.0660
     46 H          11.2200    0.8886    0.0000 H       1  UNL1        0.0660
     47 H          10.9898    1.7347    0.0000 H       1  UNL1        0.0660
@<TRIPOS>BOND
     1     1    20    1
     2     1    25    1
     3     2    21    1
     4     2    25    1
     5     3    18    1
     6     3    44    1
     7     4    15    2
     8     5    23    1
     9     5    26    1
    10     6     7    1
    11     6     9    1
    12     6    19    1
    13     7     8    1
    14     7    27    1
    15     7    28    1
    16     8    10    1
    17     8    29    1
    18     8    30    1
    19     9    11    1
    20     9    31    1
    21     9    32    1
    22    10    12   ar
    23    10    16   ar
    24    11    13   ar
    25    11    18   ar
    26    12    15    1
    27    12    17   ar
    28    13    14    1
    29    13    22   ar
    30    14    15    1
    31    14    33    1
    32    14    34    1
    33    16    20   ar
    34    16    35    1
    35    17    21   ar
    36    17    36    1
    37    18    23   ar
    38    19    37    1
    39    19    38    1
    40    19    39    1
    41    20    21   ar
    42    22    24   ar
    43    22    40    1
    44    23    24   ar
    45    24    41    1
    46    25    42    1
    47    25    43    1
    48    26    45    1
    49    26    46    1
    50    26    47    1
