@<TRIPOS>MOLECULE
IMPHY006046
 24 25 0 0 0
SMALL
GASTEIGER

@<TRIPOS>ATOM
      1 BR          2.0000    0.0103    0.0000 Br      1  UNL1       -0.0503
      2 N           5.5443   -1.7944    0.0000 N.ar    1  UNL1       -0.3604
      3 N           7.1441    1.9223    0.0000 N.3     1  UNL1       -0.3297
      4 C           5.5443   -0.1850    0.0000 C.ar    1  UNL1       -0.0211
      5 C           4.5981   -0.4897    0.0000 C.ar    1  UNL1        0.0039
      6 C           5.8550    0.7656    0.0000 C.3     1  UNL1       -0.0133
      7 C           4.5981   -1.4897    0.0000 C.ar    1  UNL1        0.0468
      8 C           6.1279   -0.9897    0.0000 C.ar    1  UNL1        0.0059
      9 C           6.8335    0.9718    0.0000 C.3     1  UNL1       -0.0029
     10 C           3.7320    0.0103    0.0000 C.ar    1  UNL1       -0.0383
     11 C           3.7320   -1.9897    0.0000 C.ar    1  UNL1       -0.0367
     12 C           2.8660   -0.4897    0.0000 C.ar    1  UNL1        0.0186
     13 C           2.8660   -1.4897    0.0000 C.ar    1  UNL1       -0.0458
     14 H           5.8344    1.3852    0.0000 H       1  UNL1        0.0326
     15 H           5.2411    0.8529    0.0000 H       1  UNL1        0.0326
     16 H           6.7479   -0.9897    0.0000 H       1  UNL1        0.0810
     17 H           5.7369   -2.3838    0.0000 H       1  UNL1        0.1653
     18 H           6.8540    0.3521    0.0000 H       1  UNL1        0.0425
     19 H           7.4473    0.8844    0.0000 H       1  UNL1        0.0425
     20 H           3.7320    0.6303    0.0000 H       1  UNL1        0.0635
     21 H           3.7320   -2.6097    0.0000 H       1  UNL1        0.0639
     22 H           2.3291   -1.7997    0.0000 H       1  UNL1        0.0629
     23 H           7.7508    2.0502    0.0000 H       1  UNL1        0.1182
     24 H           6.7301    2.3838    0.0000 H       1  UNL1        0.1182
@<TRIPOS>BOND
     1     1    12    1
     2     2     7   ar
     3     2     8   ar
     4     2    17    1
     5     3     9    1
     6     3    23    1
     7     3    24    1
     8     4     5   ar
     9     4     6    1
    10     4     8   ar
    11     5     7   ar
    12     5    10   ar
    13     6     9    1
    14     6    14    1
    15     6    15    1
    16     7    11   ar
    17     8    16    1
    18     9    18    1
    19     9    19    1
    20    10    12   ar
    21    10    20    1
    22    11    13   ar
    23    11    21    1
    24    12    13   ar
    25    13    22    1
