@<TRIPOS>MOLECULE
IMPHY002407
 79 82 0 0 0
SMALL
GASTEIGER

@<TRIPOS>ATOM
      1 O           5.6489   -4.1911    0.0000 O.2     1  UNL1       -0.2971
      2 O           2.0000   -3.1742    0.0000 O.2     1  UNL1       -0.2974
      3 C           7.3931   -0.1219    0.0000 C.3     1  UNL1       -0.0259
      4 C           7.3931   -1.1219    0.0000 C.3     1  UNL1       -0.0319
      5 C           6.5271   -1.6219    0.0000 C.3     1  UNL1       -0.0277
      6 C           5.6610   -1.1219    0.0000 C.3     1  UNL1       -0.0315
      7 C           8.3393    0.1828    0.0000 C.3     1  UNL1       -0.0328
      8 C           4.7510   -1.6287    0.0000 C.3     1  UNL1       -0.0187
      9 C           6.5271    0.3781    0.0000 C.3     1  UNL1       -0.0468
     10 C           5.6610   -0.1219    0.0000 C.3     1  UNL1       -0.0489
     11 C           8.3393   -1.4266    0.0000 C.3     1  UNL1       -0.0492
     12 C           8.9229   -0.6219    0.0000 C.3     1  UNL1       -0.0492
     13 C           4.7430   -2.6703    0.0000 C.3     1  UNL1        0.0298
     14 C           6.5431   -2.6634    0.0000 C.3     1  UNL1        0.0095
     15 C           8.6500    1.1334    0.0000 C.3     1  UNL1       -0.0405
     16 C           7.3931    0.8781    0.0000 C.3     1  UNL1       -0.0590
     17 C           3.8242   -1.0647    0.0000 C.3     1  UNL1       -0.0400
     18 C           5.6451   -3.1912    0.0000 C.2     1  UNL1        0.1376
     19 C           4.7587   -0.6288    0.0000 C.3     1  UNL1       -0.0586
     20 C           3.8076   -3.2201    0.0000 C.3     1  UNL1        0.0158
     21 C           2.8763   -1.5926    0.0000 C.3     1  UNL1        0.0064
     22 C           9.6285    1.3396    0.0000 C.3     1  UNL1       -0.0499
     23 C           7.9821    1.8777    0.0000 C.3     1  UNL1       -0.0621
     24 C           2.8680   -2.6776    0.0000 C.2     1  UNL1        0.1341
     25 C           9.9391    2.2901    0.0000 C.3     1  UNL1       -0.0497
     26 C          10.9176    2.4963    0.0000 C.3     1  UNL1       -0.0389
     27 C          11.2283    3.4468    0.0000 C.3     1  UNL1       -0.0439
     28 C          11.5855    1.7520    0.0000 C.3     1  UNL1       -0.0528
     29 C          12.2068    3.6531    0.0000 C.3     1  UNL1       -0.0624
     30 C          10.5605    4.1911    0.0000 C.3     1  UNL1       -0.0624
     31 C          12.5640    1.9582    0.0000 C.3     1  UNL1       -0.0650
     32 H           7.4830   -1.9671    0.0000 H       1  UNL1        0.0309
     33 H           7.2664   -2.0412    0.0000 H       1  UNL1        0.0310
     34 H           6.3972   -0.6969    0.0000 H       1  UNL1        0.0309
     35 H           9.1790    0.3147    0.0000 H       1  UNL1        0.0309
     36 H           6.9256    0.8531    0.0000 H       1  UNL1        0.0271
     37 H           6.1285    0.8531    0.0000 H       1  UNL1        0.0271
     38 H           5.4490    0.4607    0.0000 H       1  UNL1        0.0268
     39 H           5.0504   -0.2296    0.0000 H       1  UNL1        0.0268
     40 H           8.0883   -1.9935    0.0000 H       1  UNL1        0.0268
     41 H           8.8767   -1.7358    0.0000 H       1  UNL1        0.0268
     42 H           9.3838   -1.0366    0.0000 H       1  UNL1        0.0268
     43 H           9.3838   -0.2072    0.0000 H       1  UNL1        0.0268
     44 H           4.7463   -3.5203    0.0000 H       1  UNL1        0.0387
     45 H           6.7612   -3.2438    0.0000 H       1  UNL1        0.0345
     46 H           7.1523   -2.5479    0.0000 H       1  UNL1        0.0345
     47 H           8.0433    1.0055    0.0000 H       1  UNL1        0.0301
     48 H           8.0131    0.8781    0.0000 H       1  UNL1        0.0235
     49 H           7.3931    1.4981    0.0000 H       1  UNL1        0.0235
     50 H           6.7731    0.8781    0.0000 H       1  UNL1        0.0235
     51 H           4.2324   -0.5980    0.0000 H       1  UNL1        0.0275
     52 H           3.4343   -0.5826    0.0000 H       1  UNL1        0.0275
     53 H           5.3787   -0.6335    0.0000 H       1  UNL1        0.0235
     54 H           4.7635   -0.0088    0.0000 H       1  UNL1        0.0235
     55 H           4.1388   -0.6240    0.0000 H       1  UNL1        0.0235
     56 H           3.4103   -3.6960    0.0000 H       1  UNL1        0.0348
     57 H           4.2085   -3.6930    0.0000 H       1  UNL1        0.0348
     58 H           2.6718   -1.0073    0.0000 H       1  UNL1        0.0342
     59 H           2.2647   -1.6940    0.0000 H       1  UNL1        0.0342
     60 H           9.6490    0.7199    0.0000 H       1  UNL1        0.0268
     61 H          10.2423    1.2522    0.0000 H       1  UNL1        0.0268
     62 H           8.4436    2.2917    0.0000 H       1  UNL1        0.0233
     63 H           7.5681    2.3391    0.0000 H       1  UNL1        0.0233
     64 H           7.5207    1.4636    0.0000 H       1  UNL1        0.0233
     65 H           9.9186    2.9098    0.0000 H       1  UNL1        0.0268
     66 H           9.3253    2.3774    0.0000 H       1  UNL1        0.0268
     67 H          10.7250    1.9070    0.0000 H       1  UNL1        0.0303
     68 H          11.4209    4.0362    0.0000 H       1  UNL1        0.0298
     69 H          11.0591    1.4244    0.0000 H       1  UNL1        0.0265
     70 H          11.8167    1.1768    0.0000 H       1  UNL1        0.0265
     71 H          11.0219    4.6052    0.0000 H       1  UNL1        0.0232
     72 H          10.1464    4.6526    0.0000 H       1  UNL1        0.0232
     73 H          10.0990    3.7771    0.0000 H       1  UNL1        0.0232
     74 H          12.3347    3.0464    0.0000 H       1  UNL1        0.0232
     75 H          12.8135    3.7809    0.0000 H       1  UNL1        0.0232
     76 H          12.0790    4.2597    0.0000 H       1  UNL1        0.0232
     77 H          12.6918    1.3516    0.0000 H       1  UNL1        0.0230
     78 H          13.1707    2.0861    0.0000 H       1  UNL1        0.0230
     79 H          12.4361    2.5649    0.0000 H       1  UNL1        0.0230
@<TRIPOS>BOND
     1     1    18    2
     2     2    24    2
     3     3     4    1
     4     3     7    1
     5     3     9    1
     6     3    16    1
     7     4     5    1
     8     4    11    1
     9     4    32    1
    10     5     6    1
    11     5    14    1
    12     5    33    1
    13     6     8    1
    14     6    10    1
    15     6    34    1
    16     7    12    1
    17     7    15    1
    18     7    35    1
    19     8    13    1
    20     8    17    1
    21     8    19    1
    22     9    10    1
    23     9    36    1
    24     9    37    1
    25    10    38    1
    26    10    39    1
    27    11    12    1
    28    11    40    1
    29    11    41    1
    30    12    42    1
    31    12    43    1
    32    13    18    1
    33    13    20    1
    34    13    44    1
    35    14    18    1
    36    14    45    1
    37    14    46    1
    38    15    22    1
    39    15    23    1
    40    15    47    1
    41    16    48    1
    42    16    49    1
    43    16    50    1
    44    17    21    1
    45    17    51    1
    46    17    52    1
    47    19    53    1
    48    19    54    1
    49    19    55    1
    50    20    24    1
    51    20    56    1
    52    20    57    1
    53    21    24    1
    54    21    58    1
    55    21    59    1
    56    22    25    1
    57    22    60    1
    58    22    61    1
    59    23    62    1
    60    23    63    1
    61    23    64    1
    62    26    25    1
    63    25    65    1
    64    25    66    1
    65    26    27    1
    66    26    28    1
    67    26    67    1
    68    27    29    1
    69    27    30    1
    70    27    68    1
    71    28    31    1
    72    28    69    1
    73    28    70    1
    74    29    74    1
    75    29    75    1
    76    29    76    1
    77    30    71    1
    78    30    72    1
    79    30    73    1
    80    31    77    1
    81    31    78    1
    82    31    79    1
