@<TRIPOS>MOLECULE
IMPHY000497
 46 50 0 0 0
SMALL
GASTEIGER

@<TRIPOS>ATOM
      1 O        2448.1400 2604.8100    0.0000 O.3     1  UNL1       -0.4440
      2 C        2448.1400 2525.1100    0.0000 C.ar    1  UNL1        0.2145
      3 C        2482.6800 2504.9600    0.0000 C.ar    1  UNL1        0.1886
      4 C        2482.6800 2464.6700    0.0000 C.ar    1  UNL1        0.1187
      5 C        2517.3200 2444.5200    0.0000 C.ar    1  UNL1        0.2385
      6 O        2517.3200 2404.5200    0.0000 O.2     1  UNL1       -0.2830
      7 C        2551.8600 2464.6700    0.0000 C.ar    1  UNL1        0.2144
      8 C        2551.8600 2504.9600    0.0000 C.ar    1  UNL1        0.1824
      9 O        2517.3200 2525.1100    0.0000 O.2     1  UNL1       -0.4469
     10 C        2586.5000 2524.9100    0.0000 C.ar    1  UNL1        0.0411
     11 C        2586.5000 2564.9100    0.0000 C.ar    1  UNL1        0.0485
     12 C        2621.2400 2584.9600    0.0000 C.ar    1  UNL1        0.2344
     13 O        2621.2400 2624.9600    0.0000 O.3     1  UNL1       -0.2831
     14 C        2655.7800 2564.9100    0.0000 C.ar    1  UNL1        0.2343
     15 C        2655.7800 2524.9100    0.0000 C.ar    1  UNL1        0.0455
     16 C        2621.2400 2504.9600    0.0000 C.ar    1  UNL1        0.0066
     17 O        2690.4200 2584.9600    0.0000 O.3     1  UNL1       -0.2831
     18 O        2586.5000 2444.6200    0.0000 O.3     1  UNL1       -0.4440
     19 C        2586.5000 2375.2400    0.0000 C.3     1  UNL1        0.3220
     20 O        2621.1400 2355.1900    0.0000 O.3     1  UNL1       -0.3157
     21 C        2621.1400 2315.2900    0.0000 C.3     1  UNL1        0.1846
     22 C        2655.7800 2295.2400    0.0000 C.3     1  UNL1        0.2142
     23 O        2690.3200 2315.2900    0.0000 O.3     1  UNL1       -0.2176
     24 C        2586.5000 2295.2400    0.0000 C.3     1  UNL1        0.2145
     25 C        2551.7600 2315.1900    0.0000 C.3     1  UNL1        0.2211
     26 C        2551.8600 2355.2900    0.0000 C.3     1  UNL1        0.2542
     27 O        2517.2200 2375.2400    0.0000 O.3     1  UNL1       -0.2135
     28 O        2517.1200 2295.2400    0.0000 O.3     1  UNL1       -0.2173
     29 O        2586.5000 2255.2400    0.0000 O.3     1  UNL1       -0.2176
     30 C        2448.1400 2444.5200    0.0000 C.ar    1  UNL1        0.2052
     31 C        2413.6000 2464.6700    0.0000 C.ar    1  UNL1        0.0875
     32 C        2413.6000 2504.9600    0.0000 C.ar    1  UNL1        0.2356
     33 O        2378.9600 2524.9100    0.0000 O.3     1  UNL1       -0.2831
     34 O        2448.1400 2404.5200    0.0000 O.3     1  UNL1       -0.2862
     35 C        2413.6000 2624.7600    0.0000 C.3     1  UNL1        0.3224
     36 O        2413.6000 2664.7600    0.0000 O.3     1  UNL1       -0.3067
     37 C        2378.9600 2684.8100    0.0000 C.3     1  UNL1        0.2538
     38 C        2378.9600 2724.8100    0.0000 C.2     1  UNL1        0.3941
     39 O        2344.3200 2744.7600    0.0000 O.co2   1  UNL1       -0.2429
     40 O        2413.7000 2744.7600    0.0000 O.co2   1  UNL1       -0.2429
     41 C        2344.3200 2664.7600    0.0000 C.3     1  UNL1        0.2230
     42 C        2344.3200 2624.7600    0.0000 C.3     1  UNL1        0.2216
     43 C        2378.9600 2604.8100    0.0000 C.3     1  UNL1        0.2542
     44 O        2378.9600 2564.8100    0.0000 O.3     1  UNL1       -0.2135
     45 O        2309.5800 2604.8100    0.0000 O.3     1  UNL1       -0.2173
     46 O        2309.5800 2684.8100    0.0000 O.3     1  UNL1       -0.2171
@<TRIPOS>BOND
     1     1     2    1
     2     2     3   ar
     3     2    32   ar
     4     3     4   ar
     5     3     9   ar
     6     4     5   ar
     7     4    30   ar
     8     5     6    2
     9     5     7   ar
    10     7    18    1
    11     8     7   ar
    12     8    10    1
    13     9     8   ar
    14    10    11   ar
    15    10    16   ar
    16    11    12   ar
    17    12    13    1
    18    12    14   ar
    19    14    17    1
    20    15    14   ar
    21    16    15   ar
    22    19    18    1
    23    19    20    1
    24    19    26    1
    25    20    21    1
    26    21    22    1
    27    21    24    1
    28    22    23    1
    29    24    29    1
    30    25    24    1
    31    25    28    1
    32    26    25    1
    33    26    27    1
    34    30    34    1
    35    31    30   ar
    36    32    31   ar
    37    32    33    1
    38    35     1    1
    39    35    36    1
    40    35    43    1
    41    36    37    1
    42    37    38    1
    43    37    41    1
    44    38    39   ar
    45    38    40   ar
    46    41    46    1
    47    42    41    1
    48    42    45    1
    49    43    42    1
    50    43    44    1
