@<TRIPOS>MOLECULE
IMPHY006021
 40 41 0 0 0
SMALL
GASTEIGER

@<TRIPOS>ATOM
      1 O           2.5423   -3.3470    0.0000 O.3     1  UNL1       -0.3907
      2 C           6.5912    1.6990    0.0000 C.3     1  UNL1       -0.0314
      3 C           5.2185    1.1070    0.0000 C.3     1  UNL1       -0.0079
      4 C           6.8500    2.6649    0.0000 C.3     1  UNL1       -0.0193
      5 C           6.1134    3.6476    0.0000 C.3     1  UNL1       -0.0429
      6 C           7.9901    1.1902    0.0000 C.3     1  UNL1       -0.0489
      7 C           4.8765    2.0467    0.0000 C.2     1  UNL1       -0.0673
      8 C           8.2489    2.1561    0.0000 C.3     1  UNL1       -0.0462
      9 C           4.3439    0.6222    0.0000 C.3     1  UNL1       -0.0402
     10 C           5.4093    0.1254    0.0000 C.3     1  UNL1       -0.0556
     11 C           3.9702    2.4693    0.0000 C.2     1  UNL1       -0.0987
     12 C           4.3264   -0.3777    0.0000 C.3     1  UNL1       -0.0337
     13 C           3.4518   -0.8625    0.0000 C.2     1  UNL1       -0.0829
     14 C           3.4343   -1.8623    0.0000 C.2     1  UNL1       -0.0515
     15 C           2.5597   -2.3471    0.0000 C.3     1  UNL1        0.0650
     16 C           4.2915   -2.3774    0.0000 C.3     1  UNL1       -0.0416
     17 H           6.3712    0.8780    0.0000 H       1  UNL1        0.0309
     18 H           7.0700    3.4860    0.0000 H       1  UNL1        0.0346
     19 H           6.4312    4.1799    0.0000 H       1  UNL1        0.0274
     20 H           5.5002    3.7395    0.0000 H       1  UNL1        0.0274
     21 H           7.7952    0.6016    0.0000 H       1  UNL1        0.0268
     22 H           8.5841    1.0124    0.0000 H       1  UNL1        0.0268
     23 H           8.8429    1.9784    0.0000 H       1  UNL1        0.0271
     24 H           8.4439    2.7447    0.0000 H       1  UNL1        0.0271
     25 H           4.1420    1.2084    0.0000 H       1  UNL1        0.0277
     26 H           3.7315    0.5252    0.0000 H       1  UNL1        0.0277
     27 H           4.8007    0.0071    0.0000 H       1  UNL1        0.0238
     28 H           5.5276   -0.4832    0.0000 H       1  UNL1        0.0238
     29 H           6.0179    0.2437    0.0000 H       1  UNL1        0.0238
     30 H           3.9161    3.0870    0.0000 H       1  UNL1        0.0535
     31 H           3.4623    2.1137    0.0000 H       1  UNL1        0.0535
     32 H           4.5283   -0.9639    0.0000 H       1  UNL1        0.0308
     33 H           4.9388   -0.2807    0.0000 H       1  UNL1        0.0308
     34 H           2.9204   -0.5431    0.0000 H       1  UNL1        0.0572
     35 H           2.3579   -1.7609    0.0000 H       1  UNL1        0.0604
     36 H           1.9474   -2.4441    0.0000 H       1  UNL1        0.0604
     37 H           3.9722   -2.9088    0.0000 H       1  UNL1        0.0275
     38 H           4.8229   -2.6967    0.0000 H       1  UNL1        0.0275
     39 H           4.6108   -1.8459    0.0000 H       1  UNL1        0.0275
     40 H           2.0000   -3.6476    0.0000 H       1  UNL1        0.2098
@<TRIPOS>BOND
     1     1    15    1
     2     1    40    1
     3     2     3    1
     4     2     5    1
     5     2     6    1
     6     2    17    1
     7     3     7    1
     8     3     9    1
     9     3    10    1
    10     4     5    1
    11     4     7    1
    12     4     8    1
    13     4    18    1
    14     5    19    1
    15     5    20    1
    16     6     8    1
    17     6    21    1
    18     6    22    1
    19     7    11    2
    20     8    23    1
    21     8    24    1
    22     9    12    1
    23     9    25    1
    24     9    26    1
    25    10    27    1
    26    10    28    1
    27    10    29    1
    28    11    30    1
    29    11    31    1
    30    12    13    1
    31    12    32    1
    32    12    33    1
    33    13    14    2
    34    13    34    1
    35    14    15    1
    36    14    16    1
    37    15    35    1
    38    15    36    1
    39    16    37    1
    40    16    38    1
    41    16    39    1
