@<TRIPOS>MOLECULE
IMPHY006840
 20 20 0 0 0
SMALL
GASTEIGER

@<TRIPOS>ATOM
      1 O           4.5981    1.2500    0.0000 O.3     1  UNL1       -0.4915
      2 O           2.8660    0.2500    0.0000 O.3     1  UNL1       -0.4915
      3 C           4.5981    0.2500    0.0000 C.ar    1  UNL1        0.1615
      4 C           3.7320   -0.2500    0.0000 C.ar    1  UNL1        0.1615
      5 C           5.4641   -0.2500    0.0000 C.ar    1  UNL1       -0.0163
      6 C           3.7320   -1.2500    0.0000 C.ar    1  UNL1       -0.0163
      7 C           5.4641   -1.2500    0.0000 C.ar    1  UNL1       -0.0581
      8 C           4.5981   -1.7500    0.0000 C.ar    1  UNL1       -0.0581
      9 C           5.4641    1.7500    0.0000 C.3     1  UNL1        0.0790
     10 C           2.0000   -0.2500    0.0000 C.3     1  UNL1        0.0790
     11 H           6.0010    0.0600    0.0000 H       1  UNL1        0.0655
     12 H           3.1951   -1.5600    0.0000 H       1  UNL1        0.0655
     13 H           4.5981   -2.3700    0.0000 H       1  UNL1        0.0619
     14 H           6.0010   -1.5600    0.0000 H       1  UNL1        0.0619
     15 H           5.7741    1.2131    0.0000 H       1  UNL1        0.0660
     16 H           6.0010    2.0600    0.0000 H       1  UNL1        0.0660
     17 H           5.1541    2.2869    0.0000 H       1  UNL1        0.0660
     18 H           1.6900    0.2869    0.0000 H       1  UNL1        0.0660
     19 H           1.4631   -0.5600    0.0000 H       1  UNL1        0.0660
     20 H           2.3100   -0.7869    0.0000 H       1  UNL1        0.0660
@<TRIPOS>BOND
     1     1     3    1
     2     1     9    1
     3     2     4    1
     4     2    10    1
     5     3     4   ar
     6     3     5   ar
     7     4     6   ar
     8     5     7   ar
     9     5    11    1
    10     6     8   ar
    11     6    12    1
    12     7     8   ar
    13     7    14    1
    14     8    13    1
    15     9    15    1
    16     9    16    1
    17     9    17    1
    18    10    18    1
    19    10    19    1
    20    10    20    1
