@<TRIPOS>MOLECULE
IMPHY010814
 17 16 0 0 0
SMALL
GASTEIGER

@<TRIPOS>ATOM
      1 O           5.1350    1.2500    0.0000 O.3     1  UNL1       -0.3864
      2 O           4.2690   -1.2500    0.0000 O.3     1  UNL1       -0.3783
      3 O           6.8671    0.2500    0.0000 O.3     1  UNL1       -0.3924
      4 O           2.5369   -0.2500    0.0000 O.3     1  UNL1       -0.4788
      5 O           3.4030    1.2500    0.0000 O.2     1  UNL1       -0.2480
      6 C           5.1350    0.2500    0.0000 C.3     1  UNL1        0.1144
      7 C           4.2690   -0.2500    0.0000 C.3     1  UNL1        0.1795
      8 C           6.0010   -0.2500    0.0000 C.3     1  UNL1        0.0731
      9 C           3.4030    0.2500    0.0000 C.2     1  UNL1        0.3363
     10 H           5.6720    0.5600    0.0000 H       1  UNL1        0.0648
     11 H           4.8059   -0.5600    0.0000 H       1  UNL1        0.0738
     12 H           5.6025   -0.7249    0.0000 H       1  UNL1        0.0584
     13 H           6.3996   -0.7249    0.0000 H       1  UNL1        0.0584
     14 H           5.6720    1.5600    0.0000 H       1  UNL1        0.2100
     15 H           3.7320   -1.5600    0.0000 H       1  UNL1        0.2106
     16 H           7.4040   -0.0600    0.0000 H       1  UNL1        0.2095
     17 H           2.0000    0.0600    0.0000 H       1  UNL1        0.2951
@<TRIPOS>BOND
     1     6     1    1
     2     1    14    1
     3     7     2    1
     4     2    15    1
     5     3     8    1
     6     3    16    1
     7     4     9    1
     8     4    17    1
     9     5     9    2
    10     6     7    1
    11     6     8    1
    12     6    10    1
    13     7     9    1
    14     7    11    1
    15     8    12    1
    16     8    13    1
