@<TRIPOS>MOLECULE
IMPHY010617
 40 46 0 0 0
SMALL
GASTEIGER

@<TRIPOS>ATOM
      1 O           3.6571   -0.3726    0.0000 O.3     1  UNL1       -0.4665
      2 O           2.2298    2.8667    0.0000 O.2     1  UNL1       -0.2630
      3 O           2.0000    0.8313    0.0000 O.2     1  UNL1       -0.2781
      4 O           7.3094   -4.8264    0.0000 O.3     1  UNL1       -0.4698
      5 O          11.0116   -1.6334    0.0000 O.3     1  UNL1       -0.4700
      6 N           3.9900    2.6786    0.0000 N.ar    1  UNL1       -0.2703
      7 N           5.8402    0.6223    0.0000 N.ar    1  UNL1       -0.3221
      8 N           8.8122   -1.7950    0.0000 N.ar    1  UNL1       -0.3497
      9 N           6.1108   -2.3900    0.0000 N.ar    1  UNL1       -0.2435
     10 C           4.7990    2.0908    0.0000 C.ar    1  UNL1        0.0858
     11 C           4.7061    1.0533    0.0000 C.ar    1  UNL1        0.1141
     12 C           5.6080    2.6786    0.0000 C.ar    1  UNL1        0.0206
     13 C           5.2990    3.6296    0.0000 C.ar    1  UNL1        0.0177
     14 C           5.9409   -0.3726    0.0000 C.3     1  UNL1        0.1125
     15 C           4.2990    3.6296    0.0000 C.ar    1  UNL1        0.0670
     16 C           6.8528   -0.7829    0.0000 C.3     1  UNL1        0.0717
     17 C           6.5660    2.2696    0.0000 C.ar    1  UNL1        0.0202
     18 C           6.6829    1.2346    0.0000 C.ar    1  UNL1        0.0760
     19 C           3.7578    0.6223    0.0000 C.ar    1  UNL1        0.1993
     20 C           6.9535   -1.7778    0.0000 C.ar    1  UNL1        0.0766
     21 C           7.9018   -2.2088    0.0000 C.ar    1  UNL1        0.0734
     22 C           3.0320    2.2696    0.0000 C.ar    1  UNL1        0.3070
     23 C           8.0140   -3.2025    0.0000 C.ar    1  UNL1        0.0537
     24 C           2.9151    1.2346    0.0000 C.ar    1  UNL1        0.2866
     25 C           8.9937   -3.4028    0.0000 C.ar    1  UNL1        0.0230
     26 C           5.8336    4.5236    0.0000 C.ar    1  UNL1        0.0015
     27 C           3.7643    4.5236    0.0000 C.ar    1  UNL1        0.0176
     28 C           9.4870   -2.5330    0.0000 C.ar    1  UNL1        0.0912
     29 C           7.1857   -3.8340    0.0000 C.ar    1  UNL1        0.1591
     30 C           5.3198    5.4296    0.0000 C.ar    1  UNL1        0.0001
     31 C           4.2782    5.4296    0.0000 C.ar    1  UNL1        0.0015
     32 C          10.5284   -2.5089    0.0000 C.ar    1  UNL1        0.1541
     33 C           9.5076   -4.3089    0.0000 C.ar    1  UNL1        0.0018
     34 C           6.2277   -3.4251    0.0000 C.ar    1  UNL1        0.1353
     35 C          11.0630   -3.4028    0.0000 C.ar    1  UNL1        0.0384
     36 C          10.5492   -4.3089    0.0000 C.ar    1  UNL1        0.0032
     37 C           2.7451   -0.7829    0.0000 C.3     1  UNL1        0.2527
     38 C           6.5118   -5.4296    0.0000 C.3     1  UNL1        0.2525
     39 C          12.0114   -1.6141    0.0000 C.3     1  UNL1        0.2525
     40 H           8.9364   -1.1876    0.0000 H       1  UNL1        0.1661
@<TRIPOS>BOND
     1     1    19    1
     2     1    37    1
     3     2    22    2
     4     3    24    2
     5     4    29    1
     6     4    38    1
     7     5    32    1
     8     5    39    1
     9     6    10   ar
    10     6    15   ar
    11     6    22   ar
    12     7    11   ar
    13     7    14    1
    14     7    18   ar
    15     8    21   ar
    16     8    28   ar
    17     8    40    1
    18     9    20   ar
    19     9    34   ar
    20    10    11    1
    21    10    12   ar
    22    11    19   ar
    23    12    13   ar
    24    12    17   ar
    25    13    15   ar
    26    13    26   ar
    27    14    16    1
    28    15    27   ar
    29    16    20    1
    30    17    18   ar
    31    19    24   ar
    32    20    21   ar
    33    21    23   ar
    34    22    24   ar
    35    23    25   ar
    36    23    29   ar
    37    25    28   ar
    38    25    33   ar
    39    26    30   ar
    40    27    31   ar
    41    28    32   ar
    42    29    34   ar
    43    30    31   ar
    44    32    35   ar
    45    33    36   ar
    46    35    36   ar
