@<TRIPOS>MOLECULE
IMPHY004738
 49 53 0 0 0
SMALL
GASTEIGER

@<TRIPOS>ATOM
      1 O           4.5204   -3.7242    0.0000 O.3     1  UNL1       -0.4837
      2 O           6.0427   -0.6444    0.0000 O.2     1  UNL1       -0.4469
      3 O           6.9608    1.9040    0.0000 O.2     1  UNL1       -0.4195
      4 O           2.5405   -0.6413    0.0000 O.3     1  UNL1       -0.5058
      5 O           3.4446    0.8556    0.0000 O.2     1  UNL1       -0.2862
      6 O           3.3202    3.9925    0.0000 O.3     1  UNL1       -0.4914
      7 O           7.8129    0.3525    0.0000 O.2     1  UNL1       -0.2410
      8 O           5.1236    5.0523    0.0000 O.3     1  UNL1       -0.4913
      9 C           5.9658   -2.8748    0.0000 C.3     1  UNL1        0.0204
     10 C           5.1928   -2.1859    0.0000 C.ar    1  UNL1        0.0412
     11 C           5.5511   -3.8236    0.0000 C.3     1  UNL1        0.1249
     12 C           4.2947   -2.7137    0.0000 C.ar    1  UNL1        0.1317
     13 C           5.1767   -1.1444    0.0000 C.ar    1  UNL1        0.1499
     14 C           4.3107   -0.6444    0.0000 C.ar    1  UNL1        0.1064
     15 C           6.0578   -4.6858    0.0000 C.2     1  UNL1       -0.0395
     16 C           3.3926   -2.1929    0.0000 C.ar    1  UNL1        0.0228
     17 C           5.1767    0.8556    0.0000 C.ar    1  UNL1        0.0826
     18 C           3.4007   -1.1513    0.0000 C.ar    1  UNL1        0.1347
     19 C           4.3107    0.3556    0.0000 C.ar    1  UNL1        0.2046
     20 C           6.0427    0.3556    0.0000 C.ar    1  UNL1        0.2238
     21 C           5.1606    1.8971    0.0000 C.ar    1  UNL1        0.0357
     22 C           6.0587    2.4248    0.0000 C.ar    1  UNL1        0.1437
     23 C           5.5645   -5.5556    0.0000 C.3     1  UNL1       -0.0406
     24 C           6.9527    0.8624    0.0000 C.ar    1  UNL1        0.3809
     25 C           4.2087    2.4177    0.0000 C.ar    1  UNL1       -0.0048
     26 C           7.0577   -4.6781    0.0000 C.2     1  UNL1       -0.0962
     27 C           6.0670    3.5098    0.0000 C.ar    1  UNL1        0.0267
     28 C           4.1920    3.5026    0.0000 C.ar    1  UNL1        0.1623
     29 C           5.1274    4.0523    0.0000 C.ar    1  UNL1        0.1650
     30 C           3.3087    4.9925    0.0000 C.3     1  UNL1        0.0790
     31 C           5.9876    5.5556    0.0000 C.3     1  UNL1        0.0790
     32 H           6.5047   -3.1815    0.0000 H       1  UNL1        0.0355
     33 H           6.3274   -2.3712    0.0000 H       1  UNL1        0.0355
     34 H           5.2177   -4.3464    0.0000 H       1  UNL1        0.0784
     35 H           2.8545   -2.5008    0.0000 H       1  UNL1        0.0691
     36 H           5.0252   -5.2498    0.0000 H       1  UNL1        0.0275
     37 H           5.2586   -6.0950    0.0000 H       1  UNL1        0.0275
     38 H           6.1038   -5.8615    0.0000 H       1  UNL1        0.0275
     39 H           3.6778    2.0974    0.0000 H       1  UNL1        0.0663
     40 H           7.3719   -5.2126    0.0000 H       1  UNL1        0.0535
     41 H           7.3636   -4.1388    0.0000 H       1  UNL1        0.0535
     42 H           6.6052    3.8177    0.0000 H       1  UNL1        0.0692
     43 H           2.0000   -0.9450    0.0000 H       1  UNL1        0.2922
     44 H           3.9286    4.9996    0.0000 H       1  UNL1        0.0660
     45 H           3.3015    5.6124    0.0000 H       1  UNL1        0.0660
     46 H           2.6887    4.9853    0.0000 H       1  UNL1        0.0660
     47 H           6.2997    5.0199    0.0000 H       1  UNL1        0.0660
     48 H           6.5234    5.8677    0.0000 H       1  UNL1        0.0660
     49 H           5.6756    6.0914    0.0000 H       1  UNL1        0.0660
@<TRIPOS>BOND
     1     1    11    1
     2     1    12    1
     3     2    13   ar
     4     2    20   ar
     5     3    22   ar
     6     3    24   ar
     7     4    18    1
     8     4    43    1
     9     5    19    2
    10     6    28    1
    11     6    30    1
    12     7    24    2
    13     8    29    1
    14     8    31    1
    15     9    10    1
    16     9    11    1
    17     9    32    1
    18     9    33    1
    19    10    12   ar
    20    10    13   ar
    21    11    15    1
    22    11    34    1
    23    12    16   ar
    24    13    14   ar
    25    14    18   ar
    26    14    19   ar
    27    15    23    1
    28    15    26    2
    29    16    18   ar
    30    16    35    1
    31    17    19   ar
    32    17    20   ar
    33    17    21   ar
    34    20    24   ar
    35    21    22   ar
    36    21    25   ar
    37    22    27   ar
    38    23    36    1
    39    23    37    1
    40    23    38    1
    41    25    28   ar
    42    25    39    1
    43    26    40    1
    44    26    41    1
    45    27    29   ar
    46    27    42    1
    47    28    29   ar
    48    30    44    1
    49    30    45    1
    50    30    46    1
    51    31    47    1
    52    31    48    1
    53    31    49    1
