@<TRIPOS>MOLECULE
IMPHY008124
 71 77 0 0 0
SMALL
GASTEIGER

@<TRIPOS>ATOM
      1 O           2.9606    2.1676    0.0000 O.3     1  UNL1       -0.2983
      2 O           2.3641    3.1790    0.0000 O.3     1  UNL1       -0.3481
      3 O           5.4763    1.6007    0.0000 O.2     1  UNL1       -0.2704
      4 O           5.1130    5.5122    0.0000 O.2     1  UNL1       -0.2739
      5 O           3.3456   -0.8615    0.0000 O.2     1  UNL1       -0.2750
      6 N           3.5334    4.8016    0.0000 N.am    1  UNL1       -0.2902
      7 N           4.3540    2.9776    0.0000 N.am    1  UNL1       -0.2363
      8 N           4.2058    0.6418    0.0000 N.am    1  UNL1       -0.2793
      9 N           6.8777   -0.8618    0.0000 N.3     1  UNL1       -0.2971
     10 N           7.8657   -5.0519    0.0000 N.ar    1  UNL1       -0.3604
     11 C           2.9488    3.9903    0.0000 C.3     1  UNL1        0.0987
     12 C           3.3590    3.0783    0.0000 C.3     1  UNL1        0.2689
     13 C           3.7024    1.5059    0.0000 C.3     1  UNL1        0.2201
     14 C           2.0030    4.2963    0.0000 C.3     1  UNL1       -0.0261
     15 C           2.9440    5.6020    0.0000 C.3     1  UNL1        0.0153
     16 C           2.0000    5.2904    0.0000 C.3     1  UNL1       -0.0352
     17 C           4.5619    2.0055    0.0000 C.2     1  UNL1        0.2710
     18 C           4.9386    3.7889    0.0000 C.3     1  UNL1        0.0962
     19 C           3.0362    0.7603    0.0000 C.3     1  UNL1        0.0085
     20 C           4.5284    4.7009    0.0000 C.2     1  UNL1        0.2336
     21 C           5.0776   -0.8548    0.0000 C.3     1  UNL1        0.0670
     22 C           6.8616   -1.9033    0.0000 C.3     1  UNL1        0.0397
     23 C           4.2096   -0.3582    0.0000 C.2     1  UNL1        0.2235
     24 C           2.0573    0.9644    0.0000 C.3     1  UNL1       -0.0580
     25 C           3.3489   -0.1897    0.0000 C.3     1  UNL1       -0.0580
     26 C           5.9797   -0.3340    0.0000 C.3     1  UNL1        0.0138
     27 C           5.9956   -2.4033    0.0000 C.2     1  UNL1       -0.0254
     28 C           7.7277   -2.4033    0.0000 C.3     1  UNL1       -0.0059
     29 C           5.0856   -1.8964    0.0000 C.2     1  UNL1       -0.0658
     30 C           5.9956   -3.4033    0.0000 C.ar    1  UNL1       -0.0112
     31 C           7.7277   -3.4033    0.0000 C.ar    1  UNL1       -0.0200
     32 C           6.8616   -3.9033    0.0000 C.ar    1  UNL1        0.0103
     33 C           7.7494   -0.3718    0.0000 C.3     1  UNL1       -0.0121
     34 C           6.8777   -4.9448    0.0000 C.ar    1  UNL1        0.0473
     35 C           8.3456   -4.1816    0.0000 C.ar    1  UNL1        0.0060
     36 C           5.0856   -3.9101    0.0000 C.ar    1  UNL1       -0.0536
     37 C           5.9797   -5.4725    0.0000 C.ar    1  UNL1       -0.0378
     38 C           5.0776   -4.9517    0.0000 C.ar    1  UNL1       -0.0592
     39 H           3.7945    3.9047    0.0000 H       1  UNL1        0.0572
     40 H           1.3862    4.3596    0.0000 H       1  UNL1        0.0286
     41 H           1.8752    3.6896    0.0000 H       1  UNL1        0.0286
     42 H           3.4791    5.9152    0.0000 H       1  UNL1        0.0465
     43 H           2.6888    6.1671    0.0000 H       1  UNL1        0.0465
     44 H           1.8686    5.8963    0.0000 H       1  UNL1        0.0281
     45 H           1.3836    5.2234    0.0000 H       1  UNL1        0.0281
     46 H           5.3710    3.3446    0.0000 H       1  UNL1        0.0562
     47 H           5.4513    4.1376    0.0000 H       1  UNL1        0.0562
     48 H           2.8423    1.3492    0.0000 H       1  UNL1        0.0345
     49 H           4.7415    0.9539    0.0000 H       1  UNL1        0.1519
     50 H           2.0016    2.6760    0.0000 H       1  UNL1        0.2145
     51 H           4.5424   -1.1679    0.0000 H       1  UNL1        0.0450
     52 H           7.6010   -1.4840    0.0000 H       1  UNL1        0.0515
     53 H           2.1838    1.5713    0.0000 H       1  UNL1        0.0234
     54 H           1.4503    1.0910    0.0000 H       1  UNL1        0.0234
     55 H           1.9307    0.3575    0.0000 H       1  UNL1        0.0234
     56 H           2.7600   -0.3836    0.0000 H       1  UNL1        0.0234
     57 H           3.5428   -0.7786    0.0000 H       1  UNL1        0.0234
     58 H           3.9378    0.0042    0.0000 H       1  UNL1        0.0234
     59 H           6.3806    0.1389    0.0000 H       1  UNL1        0.0437
     60 H           5.5824    0.1420    0.0000 H       1  UNL1        0.0437
     61 H           8.3382   -2.5109    0.0000 H       1  UNL1        0.0332
     62 H           7.9397   -1.8207    0.0000 H       1  UNL1        0.0332
     63 H           4.5523   -2.2126    0.0000 H       1  UNL1        0.0583
     64 H           8.0532   -0.9123    0.0000 H       1  UNL1        0.0391
     65 H           8.2899   -0.0680    0.0000 H       1  UNL1        0.0391
     66 H           7.4457    0.1687    0.0000 H       1  UNL1        0.0391
     67 H           8.9634   -4.1299    0.0000 H       1  UNL1        0.0810
     68 H           4.5523   -3.5939    0.0000 H       1  UNL1        0.0624
     69 H           8.1517   -5.6020    0.0000 H       1  UNL1        0.1653
     70 H           5.9821   -6.0925    0.0000 H       1  UNL1        0.0638
     71 H           4.5395   -5.2596    0.0000 H       1  UNL1        0.0618
@<TRIPOS>BOND
     1     1    12    1
     2     1    13    1
     3    12     2    1
     4     2    50    1
     5     3    17    2
     6     4    20    2
     7     5    23    2
     8     6    11    1
     9     6    15    1
    10     6    20   am
    11     7    12    1
    12     7    17   am
    13     7    18    1
    14    13     8    1
    15     8    23   am
    16     8    49    1
    17     9    22    1
    18     9    26    1
    19     9    33    1
    20    10    34   ar
    21    10    35   ar
    22    10    69    1
    23    11    12    1
    24    11    14    1
    25    11    39    1
    26    13    17    1
    27    13    19    1
    28    14    16    1
    29    14    40    1
    30    14    41    1
    31    15    16    1
    32    15    42    1
    33    15    43    1
    34    16    44    1
    35    16    45    1
    36    18    20    1
    37    18    46    1
    38    18    47    1
    39    19    24    1
    40    19    25    1
    41    19    48    1
    42    21    23    1
    43    21    26    1
    44    21    29    1
    45    21    51    1
    46    22    27    1
    47    22    28    1
    48    22    52    1
    49    24    53    1
    50    24    54    1
    51    24    55    1
    52    25    56    1
    53    25    57    1
    54    25    58    1
    55    26    59    1
    56    26    60    1
    57    27    29    2
    58    27    30    1
    59    28    31    1
    60    28    61    1
    61    28    62    1
    62    29    63    1
    63    30    32   ar
    64    30    36   ar
    65    31    32   ar
    66    31    35   ar
    67    32    34   ar
    68    33    64    1
    69    33    65    1
    70    33    66    1
    71    34    37   ar
    72    35    67    1
    73    36    38   ar
    74    36    68    1
    75    37    38   ar
    76    37    70    1
    77    38    71    1
