@<TRIPOS>MOLECULE
IMPHY001294
 55 56 0 0 0
SMALL
GASTEIGER

@<TRIPOS>ATOM
      1 O           2.3100    2.9303    0.0000 O.3     1  UNL1       -0.4802
      2 O           3.8100    3.7963    0.0000 O.2     1  UNL1       -0.2504
      3 O           6.3955   -3.4802    0.0000 O.3     1  UNL1       -0.3848
      4 C           4.6760    0.5643    0.0000 C.3     1  UNL1       -0.0217
      5 C           4.6760    1.5643    0.0000 C.3     1  UNL1       -0.0193
      6 C           3.8100    2.0643    0.0000 C.3     1  UNL1        0.0681
      7 C           5.5700    0.0296    0.0000 C.3     1  UNL1       -0.0144
      8 C           3.8100    0.0643    0.0000 C.3     1  UNL1       -0.0468
      9 C           5.5700    2.0990    0.0000 C.3     1  UNL1       -0.0450
     10 C           2.9440    1.5643    0.0000 C.3     1  UNL1       -0.0372
     11 C           2.9440    0.5643    0.0000 C.3     1  UNL1       -0.0515
     12 C           4.6760   -0.4357    0.0000 C.3     1  UNL1       -0.0587
     13 C           6.4760    1.5851    0.0000 C.3     1  UNL1       -0.0314
     14 C           6.4760    0.5435    0.0000 C.2     1  UNL1       -0.0730
     15 C           5.5584   -0.9703    0.0000 C.3     1  UNL1       -0.0431
     16 C           4.3100    2.9303    0.0000 C.3     1  UNL1       -0.0491
     17 C           3.3100    2.9303    0.0000 C.2     1  UNL1        0.3110
     18 C           6.4186   -1.4803    0.0000 C.3     1  UNL1       -0.0201
     19 C           7.3401    0.0401    0.0000 C.2     1  UNL1       -0.0992
     20 C           6.4070   -2.4802    0.0000 C.3     1  UNL1        0.0811
     21 C           5.4071   -2.4687    0.0000 C.3     1  UNL1       -0.0325
     22 C           7.4070   -2.4918    0.0000 C.2     1  UNL1       -0.0602
     23 C           7.8969   -3.3635    0.0000 C.2     1  UNL1       -0.1000
     24 H           4.6695    2.4143    0.0000 H       1  UNL1        0.0317
     25 H           6.1039   -0.2855    0.0000 H       1  UNL1        0.0351
     26 H           3.4115   -0.4107    0.0000 H       1  UNL1        0.0271
     27 H           4.2085   -0.4107    0.0000 H       1  UNL1        0.0271
     28 H           5.9636    2.5780    0.0000 H       1  UNL1        0.0271
     29 H           5.1654    2.5687    0.0000 H       1  UNL1        0.0271
     30 H           2.7319    2.1469    0.0000 H       1  UNL1        0.0276
     31 H           2.3334    1.4566    0.0000 H       1  UNL1        0.0276
     32 H           2.3334    0.6720    0.0000 H       1  UNL1        0.0266
     33 H           2.7319   -0.0183    0.0000 H       1  UNL1        0.0266
     34 H           4.0560   -0.4357    0.0000 H       1  UNL1        0.0235
     35 H           4.6760   -1.0557    0.0000 H       1  UNL1        0.0235
     36 H           5.2960   -0.4357    0.0000 H       1  UNL1        0.0235
     37 H           7.0869    1.4790    0.0000 H       1  UNL1        0.0310
     38 H           6.6851    2.1688    0.0000 H       1  UNL1        0.0310
     39 H           4.9491   -0.8556    0.0000 H       1  UNL1        0.0272
     40 H           5.3396   -1.5504    0.0000 H       1  UNL1        0.0272
     41 H           4.8469    2.6203    0.0000 H       1  UNL1        0.0240
     42 H           4.6200    3.4672    0.0000 H       1  UNL1        0.0240
     43 H           3.7731    3.2403    0.0000 H       1  UNL1        0.0240
     44 H           7.0279   -1.5950    0.0000 H       1  UNL1        0.0296
     45 H           6.6374   -0.9002    0.0000 H       1  UNL1        0.0296
     46 H           7.3377   -0.5799    0.0000 H       1  UNL1        0.0534
     47 H           7.8782    0.3481    0.0000 H       1  UNL1        0.0534
     48 H           2.0000    3.4672    0.0000 H       1  UNL1        0.2951
     49 H           5.4143   -1.8487    0.0000 H       1  UNL1        0.0260
     50 H           4.7871   -2.4615    0.0000 H       1  UNL1        0.0260
     51 H           5.3999   -3.0886    0.0000 H       1  UNL1        0.0260
     52 H           7.7232   -1.9585    0.0000 H       1  UNL1        0.0594
     53 H           6.9288   -3.7963    0.0000 H       1  UNL1        0.2106
     54 H           7.5807   -3.8968    0.0000 H       1  UNL1        0.0533
     55 H           8.5169   -3.3707    0.0000 H       1  UNL1        0.0533
@<TRIPOS>BOND
     1     1    17    1
     2     1    48    1
     3     2    17    2
     4    20     3    1
     5     3    53    1
     6     4     5    1
     7     4     7    1
     8     4     8    1
     9     4    12    1
    10     5     6    1
    11     5     9    1
    12     5    24    1
    13     6    10    1
    14     6    16    1
    15     6    17    1
    16     7    14    1
    17     7    15    1
    18     7    25    1
    19     8    11    1
    20     8    26    1
    21     8    27    1
    22     9    13    1
    23     9    28    1
    24     9    29    1
    25    10    11    1
    26    10    30    1
    27    10    31    1
    28    11    32    1
    29    11    33    1
    30    12    34    1
    31    12    35    1
    32    12    36    1
    33    13    14    1
    34    13    37    1
    35    13    38    1
    36    14    19    2
    37    15    18    1
    38    15    39    1
    39    15    40    1
    40    16    41    1
    41    16    42    1
    42    16    43    1
    43    18    20    1
    44    18    44    1
    45    18    45    1
    46    19    46    1
    47    19    47    1
    48    20    21    1
    49    20    22    1
    50    21    49    1
    51    21    50    1
    52    21    51    1
    53    22    23    2
    54    22    52    1
    55    23    54    1
    56    23    55    1
