@<TRIPOS>MOLECULE
IMPHY000598
 13 13 0 0 0
SMALL
GASTEIGER

@<TRIPOS>ATOM
      1 N           2.8660   -0.6900    0.0000 N.pl3   1  UNL1       -0.3270
      2 C           2.8660    1.3100    0.0000 C.3     1  UNL1       -0.0136
      3 C           2.0000    0.8100    0.0000 C.2     1  UNL1       -0.0664
      4 C           3.7320    0.8100    0.0000 C.2     1  UNL1       -0.0664
      5 C           2.0000   -0.1900    0.0000 C.2     1  UNL1       -0.0104
      6 C           3.7320   -0.1900    0.0000 C.2     1  UNL1       -0.0104
      7 H           3.2646    1.7850    0.0000 H       1  UNL1        0.0351
      8 H           2.4675    1.7850    0.0000 H       1  UNL1        0.0351
      9 H           1.4631    1.1200    0.0000 H       1  UNL1        0.0587
     10 H           4.2690    1.1200    0.0000 H       1  UNL1        0.0587
     11 H           1.4631   -0.5000    0.0000 H       1  UNL1        0.0778
     12 H           4.2690   -0.5000    0.0000 H       1  UNL1        0.0778
     13 H           2.8660   -1.3100    0.0000 H       1  UNL1        0.1510
@<TRIPOS>BOND
     1     1     5    1
     2     1     6    1
     3     1    13    1
     4     2     3    1
     5     2     4    1
     6     2     7    1
     7     2     8    1
     8     3     5    2
     9     3     9    1
    10     4     6    2
    11     4    10    1
    12     5    11    1
    13     6    12    1
