@<TRIPOS>MOLECULE
IMPHY008655
 35 35 0 0 0
SMALL
GASTEIGER

@<TRIPOS>ATOM
      1 O           7.7331   -3.5950    0.0000 O.3     1  UNL1       -0.3916
      2 O           7.7331   -0.5950    0.0000 O.2     1  UNL1       -0.2973
      3 O           4.2690    3.4050    0.0000 O.3     1  UNL1       -0.4915
      4 O           2.5369    2.4050    0.0000 O.3     1  UNL1       -0.5033
      5 C           6.0010   -0.5950    0.0000 C.3     1  UNL1        0.0099
      6 C           6.0010    0.4050    0.0000 C.3     1  UNL1       -0.0209
      7 C           6.8671   -2.0950    0.0000 C.3     1  UNL1        0.0316
      8 C           6.8671   -1.0950    0.0000 C.2     1  UNL1        0.1361
      9 C           7.7331   -2.5950    0.0000 C.3     1  UNL1        0.0591
     10 C           5.1350    0.9050    0.0000 C.ar    1  UNL1       -0.0433
     11 C           5.1350    1.9050    0.0000 C.ar    1  UNL1       -0.0131
     12 C           4.2690    0.4050    0.0000 C.ar    1  UNL1       -0.0549
     13 C           8.5991   -2.0950    0.0000 C.3     1  UNL1       -0.0385
     14 C           4.2690    2.4050    0.0000 C.ar    1  UNL1        0.1615
     15 C           3.4030    0.9050    0.0000 C.ar    1  UNL1       -0.0163
     16 C           3.4030    1.9050    0.0000 C.ar    1  UNL1        0.1585
     17 C           5.1350    3.9050    0.0000 C.3     1  UNL1        0.0790
     18 H           5.3905   -0.4873    0.0000 H       1  UNL1        0.0345
     19 H           5.7890   -1.1776    0.0000 H       1  UNL1        0.0345
     20 H           6.6116    0.2973    0.0000 H       1  UNL1        0.0317
     21 H           6.2131    0.9876    0.0000 H       1  UNL1        0.0317
     22 H           6.2565   -1.9873    0.0000 H       1  UNL1        0.0367
     23 H           6.6550   -2.6776    0.0000 H       1  UNL1        0.0367
     24 H           8.2700   -2.9050    0.0000 H       1  UNL1        0.0594
     25 H           5.6720    2.2150    0.0000 H       1  UNL1        0.0658
     26 H           4.2690   -0.2150    0.0000 H       1  UNL1        0.0621
     27 H           8.9091   -2.6319    0.0000 H       1  UNL1        0.0255
     28 H           9.1360   -1.7850    0.0000 H       1  UNL1        0.0255
     29 H           8.2891   -1.5581    0.0000 H       1  UNL1        0.0255
     30 H           2.8660    0.5950    0.0000 H       1  UNL1        0.0655
     31 H           8.2700   -3.9050    0.0000 H       1  UNL1        0.2098
     32 H           2.0000    2.0950    0.0000 H       1  UNL1        0.2923
     33 H           5.4450    3.3681    0.0000 H       1  UNL1        0.0660
     34 H           5.6720    4.2150    0.0000 H       1  UNL1        0.0660
     35 H           4.8250    4.4419    0.0000 H       1  UNL1        0.0660
@<TRIPOS>BOND
     1     9     1    1
     2     1    31    1
     3     2     8    2
     4     3    14    1
     5     3    17    1
     6     4    16    1
     7     4    32    1
     8     5     6    1
     9     5     8    1
    10     5    18    1
    11     5    19    1
    12     6    10    1
    13     6    20    1
    14     6    21    1
    15     7     8    1
    16     7     9    1
    17     7    22    1
    18     7    23    1
    19     9    13    1
    20     9    24    1
    21    10    11   ar
    22    10    12   ar
    23    11    14   ar
    24    11    25    1
    25    12    15   ar
    26    12    26    1
    27    13    27    1
    28    13    28    1
    29    13    29    1
    30    14    16   ar
    31    15    16   ar
    32    15    30    1
    33    17    33    1
    34    17    34    1
    35    17    35    1
