@<TRIPOS>MOLECULE
IMPHY000521
 20 20 0 0 0
SMALL
GASTEIGER

@<TRIPOS>ATOM
      1 N           3.7320    2.0950    0.0000 N.3     1  UNL1       -0.3297
      2 C           2.8660    0.5950    0.0000 C.3     1  UNL1       -0.0153
      3 C           2.8660   -0.4050    0.0000 C.ar    1  UNL1       -0.0462
      4 C           3.7320    1.0950    0.0000 C.3     1  UNL1       -0.0029
      5 C           2.0000   -0.9050    0.0000 C.ar    1  UNL1       -0.0585
      6 C           3.7320   -0.9050    0.0000 C.ar    1  UNL1       -0.0585
      7 C           2.0000   -1.9050    0.0000 C.ar    1  UNL1       -0.0615
      8 C           3.7320   -1.9050    0.0000 C.ar    1  UNL1       -0.0615
      9 C           2.8660   -2.4050    0.0000 C.ar    1  UNL1       -0.0617
     10 H           2.6540    1.1776    0.0000 H       1  UNL1        0.0325
     11 H           2.2554    0.4873    0.0000 H       1  UNL1        0.0325
     12 H           3.9441    0.5124    0.0000 H       1  UNL1        0.0425
     13 H           4.3426    1.2027    0.0000 H       1  UNL1        0.0425
     14 H           1.4631   -0.5950    0.0000 H       1  UNL1        0.0620
     15 H           4.2690   -0.5950    0.0000 H       1  UNL1        0.0620
     16 H           1.4631   -2.2150    0.0000 H       1  UNL1        0.0618
     17 H           4.2690   -2.2150    0.0000 H       1  UNL1        0.0618
     18 H           2.8660   -3.0250    0.0000 H       1  UNL1        0.0618
     19 H           4.2690    2.4050    0.0000 H       1  UNL1        0.1182
     20 H           3.1951    2.4050    0.0000 H       1  UNL1        0.1182
@<TRIPOS>BOND
     1     1     4    1
     2     1    19    1
     3     1    20    1
     4     2     3    1
     5     2     4    1
     6     2    10    1
     7     2    11    1
     8     3     5   ar
     9     3     6   ar
    10     4    12    1
    11     4    13    1
    12     5     7   ar
    13     5    14    1
    14     6     8   ar
    15     6    15    1
    16     7     9   ar
    17     7    16    1
    18     8     9   ar
    19     8    17    1
    20     9    18    1
