@<TRIPOS>MOLECULE
IMPHY016038
 25 25 0 0 0
SMALL
GASTEIGER

@<TRIPOS>ATOM
      1 O           4.5032   -0.2020    0.0000 O.3     1  UNL1       -0.3590
      2 O           2.5352   -0.9014    0.0000 O.2     1  UNL1       -0.2949
      3 C           5.3122    0.3858    0.0000 C.3     1  UNL1        0.0855
      4 C           5.0032    1.3368    0.0000 C.3     1  UNL1       -0.0176
      5 C           4.0032    1.3368    0.0000 C.3     1  UNL1       -0.0167
      6 C           3.6942    0.3858    0.0000 C.3     1  UNL1        0.1173
      7 C           6.2633    0.6948    0.0000 C.3     1  UNL1       -0.0322
      8 C           5.9000   -0.4233    0.0000 C.2     1  UNL1       -0.0599
      9 C           2.7431    0.0767    0.0000 C.2     1  UNL1        0.1588
     10 C           2.0000    0.7459    0.0000 C.3     1  UNL1       -0.0034
     11 C           5.4933   -1.3368    0.0000 C.2     1  UNL1       -0.1000
     12 H           5.6097    1.4657    0.0000 H       1  UNL1        0.0297
     13 H           4.9384    1.9534    0.0000 H       1  UNL1        0.0297
     14 H           4.0680    1.9534    0.0000 H       1  UNL1        0.0295
     15 H           3.3968    1.4657    0.0000 H       1  UNL1        0.0295
     16 H           3.5972   -0.2266    0.0000 H       1  UNL1        0.0676
     17 H           6.4549    0.1051    0.0000 H       1  UNL1        0.0260
     18 H           6.8530    0.8864    0.0000 H       1  UNL1        0.0260
     19 H           6.0717    1.2844    0.0000 H       1  UNL1        0.0260
     20 H           6.5166   -0.3585    0.0000 H       1  UNL1        0.0594
     21 H           2.4149    1.2066    0.0000 H       1  UNL1        0.0307
     22 H           1.5392    1.1607    0.0000 H       1  UNL1        0.0307
     23 H           1.5851    0.2851    0.0000 H       1  UNL1        0.0307
     24 H           4.8767   -1.4016    0.0000 H       1  UNL1        0.0533
     25 H           5.8577   -1.8384    0.0000 H       1  UNL1        0.0533
@<TRIPOS>BOND
     1     1     3    1
     2     1     6    1
     3     2     9    2
     4     3     4    1
     5     3     7    1
     6     3     8    1
     7     4     5    1
     8     4    12    1
     9     4    13    1
    10     5     6    1
    11     5    14    1
    12     5    15    1
    13     6     9    1
    14     6    16    1
    15     7    17    1
    16     7    18    1
    17     7    19    1
    18     8    11    2
    19     8    20    1
    20     9    10    1
    21    10    21    1
    22    10    22    1
    23    10    23    1
    24    11    24    1
    25    11    25    1
