@<TRIPOS>MOLECULE
IMPHY008475
 76 81 0 0 0
SMALL
GASTEIGER

@<TRIPOS>ATOM
      1 O           3.7998   -3.3179    0.0000 O.3     1  UNL1       -0.3607
      2 O           9.0395   -0.3098    0.0000 O.3     1  UNL1       -0.3914
      3 O           2.9176   -3.8520    0.0000 O.3     1  UNL1       -0.3848
      4 O           8.7042    1.1709    0.0000 O.3     1  UNL1       -0.3858
      5 O           2.9176    0.2172    0.0000 O.2     1  UNL1       -0.2920
      6 O           7.4120    3.1864    0.0000 O.3     1  UNL1       -0.3853
      7 O           9.4695    3.5453    0.0000 O.3     1  UNL1       -0.4581
      8 O          11.1391    4.1682    0.0000 O.2     1  UNL1       -0.2505
      9 C           5.5321   -1.3174    0.0000 C.3     1  UNL1       -0.0314
     10 C           3.8000   -2.3174    0.0000 C.3     1  UNL1        0.1376
     11 C           4.6660   -0.8174    0.0000 C.3     1  UNL1       -0.0226
     12 C           6.4421   -0.8106    0.0000 C.3     1  UNL1       -0.0297
     13 C           3.8000   -1.3174    0.0000 C.3     1  UNL1        0.0673
     14 C           6.4501    0.2310    0.0000 C.3     1  UNL1       -0.0210
     15 C           4.6660   -2.8174    0.0000 C.3     1  UNL1        0.0925
     16 C           5.5321   -2.3174    0.0000 C.3     1  UNL1       -0.0203
     17 C           7.4381    0.5408    0.0000 C.3     1  UNL1        0.0218
     18 C           4.6500    0.2241    0.0000 C.3     1  UNL1       -0.0484
     19 C           5.5480    0.7518    0.0000 C.3     1  UNL1       -0.0466
     20 C           7.4252   -1.1356    0.0000 C.3     1  UNL1       -0.0229
     21 C           8.0396   -0.3021    0.0000 C.3     1  UNL1        0.0615
     22 C           2.9061   -2.8521    0.0000 C.3     1  UNL1        0.1060
     23 C           7.7561    1.4889    0.0000 C.3     1  UNL1        0.0981
     24 C           3.8000   -0.3174    0.0000 C.3     1  UNL1       -0.0494
     25 C           6.4578    1.2310    0.0000 C.3     1  UNL1       -0.0589
     26 C           2.9061   -0.7828    0.0000 C.2     1  UNL1        0.1649
     27 C           2.0000   -2.3383    0.0000 C.2     1  UNL1       -0.0497
     28 C           2.0000   -1.2966    0.0000 C.2     1  UNL1       -0.0200
     29 C           8.0741    2.4370    0.0000 C.3     1  UNL1        0.1209
     30 C           6.8080    1.8069    0.0000 C.3     1  UNL1       -0.0331
     31 C           9.0542    2.6357    0.0000 C.3     1  UNL1        0.1347
     32 C           9.7909    1.9596    0.0000 C.3     1  UNL1        0.0085
     33 C          10.6616    2.4514    0.0000 C.3     1  UNL1        0.0596
     34 C          10.4630    3.4314    0.0000 C.2     1  UNL1        0.3107
     35 C           9.6770    0.9661    0.0000 C.3     1  UNL1       -0.0582
     36 C          11.5713    2.0360    0.0000 C.3     1  UNL1       -0.0519
     37 H           6.2649   -1.7481    0.0000 H       1  UNL1        0.0307
     38 H           5.3989   -0.3868    0.0000 H       1  UNL1        0.0314
     39 H           6.5222   -1.6568    0.0000 H       1  UNL1        0.0310
     40 H           5.0911   -3.5535    0.0000 H       1  UNL1        0.0626
     41 H           5.7441   -2.9000    0.0000 H       1  UNL1        0.0294
     42 H           6.1426   -2.2098    0.0000 H       1  UNL1        0.0294
     43 H           6.8430    1.1478    0.0000 H       1  UNL1        0.0360
     44 H           4.4319    0.8045    0.0000 H       1  UNL1        0.0268
     45 H           4.0408    0.1086    0.0000 H       1  UNL1        0.0268
     46 H           5.9453    1.2278    0.0000 H       1  UNL1        0.0271
     47 H           5.1470    1.2247    0.0000 H       1  UNL1        0.0271
     48 H           7.1698   -1.7006    0.0000 H       1  UNL1        0.0293
     49 H           7.9602   -1.4490    0.0000 H       1  UNL1        0.0293
     50 H           8.4316    0.4521    0.0000 H       1  UNL1        0.0597
     51 H           2.1741   -3.2842    0.0000 H       1  UNL1        0.0668
     52 H           4.4200   -0.3174    0.0000 H       1  UNL1        0.0240
     53 H           3.8000    0.3026    0.0000 H       1  UNL1        0.0240
     54 H           3.1800   -0.3174    0.0000 H       1  UNL1        0.0240
     55 H           7.0778    1.2262    0.0000 H       1  UNL1        0.0235
     56 H           6.4626    1.8510    0.0000 H       1  UNL1        0.0235
     57 H           5.8378    1.2357    0.0000 H       1  UNL1        0.0235
     58 H           1.4643   -2.6503    0.0000 H       1  UNL1        0.0599
     59 H           1.4643   -0.9846    0.0000 H       1  UNL1        0.0650
     60 H           8.3444    3.2429    0.0000 H       1  UNL1        0.0659
     61 H           7.0052    2.3947    0.0000 H       1  UNL1        0.0258
     62 H           6.2202    2.0040    0.0000 H       1  UNL1        0.0258
     63 H           6.6109    1.2191    0.0000 H       1  UNL1        0.0258
     64 H           9.3454   -0.8491    0.0000 H       1  UNL1        0.2098
     65 H           2.3843   -4.1682    0.0000 H       1  UNL1        0.2103
     66 H           8.8274    0.5633    0.0000 H       1  UNL1        0.2103
     67 H           9.8872    2.8046    0.0000 H       1  UNL1        0.0764
     68 H          10.4994    1.4899    0.0000 H       1  UNL1        0.0342
     69 H           7.6091    3.7743    0.0000 H       1  UNL1        0.2101
     70 H          10.6981    1.6022    0.0000 H       1  UNL1        0.0414
     71 H           9.0611    1.0367    0.0000 H       1  UNL1        0.0234
     72 H           9.6064    0.3501    0.0000 H       1  UNL1        0.0234
     73 H          10.2930    0.8954    0.0000 H       1  UNL1        0.0234
     74 H          11.3138    1.4720    0.0000 H       1  UNL1        0.0238
     75 H          12.1353    1.7785    0.0000 H       1  UNL1        0.0238
     76 H          11.8288    2.6000    0.0000 H       1  UNL1        0.0238
@<TRIPOS>BOND
     1     1    10    1
     2     1    15    1
     3     2    21    1
     4     2    64    1
     5     3    22    1
     6     3    65    1
     7     4    23    1
     8     4    66    1
     9     5    26    2
    10     6    29    1
    11     6    69    1
    12     7    31    1
    13     7    34    1
    14     8    34    2
    15     9    11    1
    16     9    12    1
    17     9    16    1
    18     9    37    1
    19    10    13    1
    20    10    15    1
    21    10    22    1
    22    11    13    1
    23    11    18    1
    24    11    38    1
    25    12    14    1
    26    12    20    1
    27    12    39    1
    28    13    24    1
    29    13    26    1
    30    14    17    1
    31    14    19    1
    32    14    25    1
    33    15    16    1
    34    15    40    1
    35    16    41    1
    36    16    42    1
    37    17    21    1
    38    17    23    1
    39    17    43    1
    40    18    19    1
    41    18    44    1
    42    18    45    1
    43    19    46    1
    44    19    47    1
    45    20    21    1
    46    20    48    1
    47    20    49    1
    48    21    50    1
    49    22    27    1
    50    22    51    1
    51    23    29    1
    52    23    30    1
    53    24    52    1
    54    24    53    1
    55    24    54    1
    56    25    55    1
    57    25    56    1
    58    25    57    1
    59    26    28    1
    60    27    28    2
    61    27    58    1
    62    28    59    1
    63    29    31    1
    64    29    60    1
    65    30    61    1
    66    30    62    1
    67    30    63    1
    68    31    32    1
    69    31    67    1
    70    32    33    1
    71    32    35    1
    72    32    68    1
    73    33    34    1
    74    33    36    1
    75    33    70    1
    76    35    71    1
    77    35    72    1
    78    35    73    1
    79    36    74    1
    80    36    75    1
    81    36    76    1
