@<TRIPOS>MOLECULE
IMPHY016903
 35 37 0 0 0
SMALL
GASTEIGER

@<TRIPOS>ATOM
      1 O           6.4144    1.7744    0.0000 O.3     1  UNL1       -0.4934
      2 O           8.1962   -1.2844    0.0000 O.3     1  UNL1       -0.4941
      3 O           4.6660    1.7398    0.0000 O.2     1  UNL1       -0.2865
      4 O           4.6660   -2.2602    0.0000 O.2     1  UNL1       -0.2866
      5 O           9.0641    0.2673    0.0000 O.3     1  UNL1       -0.4770
      6 O           8.1923    1.7639    0.0000 O.2     1  UNL1       -0.2449
      7 C           5.5321    0.2398    0.0000 C.ar    1  UNL1        0.0757
      8 C           5.5321   -0.7602    0.0000 C.ar    1  UNL1        0.0401
      9 C           3.8000    0.2398    0.0000 C.ar    1  UNL1        0.0332
     10 C           3.8000   -0.7602    0.0000 C.ar    1  UNL1        0.0331
     11 C           4.6660    0.7398    0.0000 C.2     1  UNL1        0.1980
     12 C           6.4260    0.7744    0.0000 C.ar    1  UNL1        0.1491
     13 C           4.6660   -1.2602    0.0000 C.2     1  UNL1        0.1947
     14 C           6.4260   -1.2949    0.0000 C.ar    1  UNL1       -0.0074
     15 C           7.3321    0.2606    0.0000 C.ar    1  UNL1        0.1425
     16 C           7.3321   -0.7810    0.0000 C.ar    1  UNL1        0.1383
     17 C           2.9061    0.7744    0.0000 C.ar    1  UNL1       -0.0502
     18 C           2.9061   -1.2949    0.0000 C.ar    1  UNL1       -0.0502
     19 C           2.0000    0.2606    0.0000 C.ar    1  UNL1       -0.0610
     20 C           2.0000   -0.7810    0.0000 C.ar    1  UNL1       -0.0610
     21 C           8.1962    0.7639    0.0000 C.2     1  UNL1        0.3440
     22 C           7.2746    2.2844    0.0000 C.3     1  UNL1        0.0789
     23 C           8.1923   -2.2844    0.0000 C.3     1  UNL1        0.0788
     24 H           6.4188   -1.9148    0.0000 H       1  UNL1        0.0662
     25 H           2.9132    1.3944    0.0000 H       1  UNL1        0.0625
     26 H           2.9132   -1.9148    0.0000 H       1  UNL1        0.0625
     27 H           1.4643    0.5727    0.0000 H       1  UNL1        0.0618
     28 H           1.4643   -1.0931    0.0000 H       1  UNL1        0.0618
     29 H           7.5908    1.7510    0.0000 H       1  UNL1        0.0660
     30 H           7.8079    2.6006    0.0000 H       1  UNL1        0.0660
     31 H           6.9584    2.8177    0.0000 H       1  UNL1        0.0660
     32 H           7.5723   -2.2820    0.0000 H       1  UNL1        0.0660
     33 H           8.1899   -2.9044    0.0000 H       1  UNL1        0.0660
     34 H           8.8123   -2.2868    0.0000 H       1  UNL1        0.0660
     35 H           9.5998    0.5793    0.0000 H       1  UNL1        0.2954
@<TRIPOS>BOND
     1     1    12    1
     2     1    22    1
     3     2    16    1
     4     2    23    1
     5     3    11    2
     6     4    13    2
     7     5    21    1
     8     5    35    1
     9     6    21    2
    10     7     8   ar
    11     7    11    1
    12     7    12   ar
    13     8    13    1
    14     8    14   ar
    15     9    10   ar
    16     9    11    1
    17     9    17   ar
    18    10    13    1
    19    10    18   ar
    20    12    15   ar
    21    14    16   ar
    22    14    24    1
    23    15    16   ar
    24    15    21    1
    25    17    19   ar
    26    17    25    1
    27    18    20   ar
    28    18    26    1
    29    19    20   ar
    30    19    27    1
    31    20    28    1
    32    22    29    1
    33    22    30    1
    34    22    31    1
    35    23    32    1
    36    23    33    1
    37    23    34    1
