@<TRIPOS>MOLECULE
IMPHY006420
 39 40 0 0 0
SMALL
GASTEIGER

@<TRIPOS>ATOM
      1 O           6.8474   -0.8249    0.0000 O.3     1  UNL1       -0.3620
      2 O           3.3660   -0.0849    0.0000 O.2     1  UNL1       -0.4822
      3 C           7.6564   -0.2371    0.0000 C.3     1  UNL1        0.0854
      4 C           6.0384   -0.2371    0.0000 C.3     1  UNL1        0.0843
      5 C           7.3474    0.7140    0.0000 C.3     1  UNL1       -0.0177
      6 C           6.3474    0.7140    0.0000 C.3     1  UNL1       -0.0197
      7 C           5.0873   -0.5461    0.0000 C.2     1  UNL1       -0.0026
      8 C           8.6075    0.0719    0.0000 C.3     1  UNL1       -0.0322
      9 C           8.2442   -1.0461    0.0000 C.2     1  UNL1       -0.0599
     10 C           4.3442    0.1230    0.0000 C.2     1  UNL1        0.1230
     11 C           2.8660    0.7811    0.0000 C.3     1  UNL1        0.1236
     12 C           4.8794   -1.5243    0.0000 C.3     1  UNL1       -0.0376
     13 C           4.4487    1.1175    0.0000 C.2     1  UNL1       -0.0201
     14 C           3.5352    1.5243    0.0000 C.2     1  UNL1       -0.0381
     15 C           2.1229    1.4502    0.0000 C.3     1  UNL1       -0.0215
     16 C           2.0000    0.2811    0.0000 C.3     1  UNL1       -0.0215
     17 C           9.2387   -0.9416    0.0000 C.2     1  UNL1       -0.1000
     18 H           5.9414   -0.8495    0.0000 H       1  UNL1        0.0644
     19 H           7.9538    0.8429    0.0000 H       1  UNL1        0.0297
     20 H           7.2826    1.3306    0.0000 H       1  UNL1        0.0297
     21 H           6.4122    1.3306    0.0000 H       1  UNL1        0.0294
     22 H           5.7409    0.8429    0.0000 H       1  UNL1        0.0294
     23 H           8.7991   -0.5177    0.0000 H       1  UNL1        0.0260
     24 H           9.1971    0.2635    0.0000 H       1  UNL1        0.0260
     25 H           8.4159    0.6616    0.0000 H       1  UNL1        0.0260
     26 H           7.9920   -1.6125    0.0000 H       1  UNL1        0.0594
     27 H           4.2730   -1.3954    0.0000 H       1  UNL1        0.0276
     28 H           4.7505   -2.1307    0.0000 H       1  UNL1        0.0276
     29 H           5.4859   -1.6532    0.0000 H       1  UNL1        0.0276
     30 H           4.9856    1.4275    0.0000 H       1  UNL1        0.0652
     31 H           3.4062    2.1307    0.0000 H       1  UNL1        0.0612
     32 H           1.6900    0.8181    0.0000 H       1  UNL1        0.0271
     33 H           1.4631   -0.0289    0.0000 H       1  UNL1        0.0271
     34 H           2.3100   -0.2558    0.0000 H       1  UNL1        0.0271
     35 H           2.5377    1.9110    0.0000 H       1  UNL1        0.0271
     36 H           1.6621    1.8651    0.0000 H       1  UNL1        0.0271
     37 H           1.7080    0.9895    0.0000 H       1  UNL1        0.0271
     38 H           9.6031   -1.4432    0.0000 H       1  UNL1        0.0533
     39 H           9.4909   -0.3752    0.0000 H       1  UNL1        0.0533
@<TRIPOS>BOND
     1     1     3    1
     2     1     4    1
     3     2    10    1
     4     2    11    1
     5     3     5    1
     6     3     8    1
     7     3     9    1
     8     4     6    1
     9     4     7    1
    10     4    18    1
    11     5     6    1
    12     5    19    1
    13     5    20    1
    14     6    21    1
    15     6    22    1
    16     7    10    2
    17     7    12    1
    18     8    23    1
    19     8    24    1
    20     8    25    1
    21     9    17    2
    22     9    26    1
    23    10    13    1
    24    11    14    1
    25    11    15    1
    26    11    16    1
    27    12    27    1
    28    12    28    1
    29    12    29    1
    30    13    14    2
    31    13    30    1
    32    14    31    1
    33    15    35    1
    34    15    36    1
    35    15    37    1
    36    16    32    1
    37    16    33    1
    38    16    34    1
    39    17    38    1
    40    17    39    1
