@<TRIPOS>MOLECULE
IMPHY005473
 92 97 0 0 0
SMALL
GASTEIGER

@<TRIPOS>ATOM
      1 O          10.4037    0.4050    0.0000 O.3     1  UNL1       -0.3313
      2 O           9.5376   -2.0950    0.0000 O.3     1  UNL1       -0.3461
      3 O           7.8056   -2.0950    0.0000 O.3     1  UNL1       -0.3431
      4 O          11.2697   -2.0950    0.0000 O.3     1  UNL1       -0.3865
      5 O          11.2697    1.9050    0.0000 O.3     1  UNL1       -0.4532
      6 O          13.0017   -1.0950    0.0000 O.3     1  UNL1       -0.3864
      7 O          13.0017    0.9050    0.0000 O.3     1  UNL1       -0.3829
      8 O           9.5376   -4.0950    0.0000 O.3     1  UNL1       -0.3841
      9 O           4.2755    3.9358    0.0000 O.3     1  UNL1       -0.3339
     10 O           7.8056   -5.0950    0.0000 O.3     1  UNL1       -0.3864
     11 O           6.0736   -4.0950    0.0000 O.3     1  UNL1       -0.3866
     12 O           6.0075    3.9292    0.0000 O.3     1  UNL1       -0.4606
     13 O           4.2639    0.9358    0.0000 O.3     1  UNL1       -0.3864
     14 O           2.5357    1.9425    0.0000 O.3     1  UNL1       -0.3866
     15 O           5.9998    1.9292    0.0000 O.3     1  UNL1       -0.3829
     16 O           9.5376    3.9050    0.0000 O.2     1  UNL1       -0.4507
     17 O           9.5376    0.9050    0.0000 O.2     1  UNL1       -0.2830
     18 O           7.7892    0.8704    0.0000 O.3     1  UNL1       -0.5058
     19 O          13.8678    5.4050    0.0000 O.3     1  UNL1       -0.5068
     20 C          10.4037   -0.5950    0.0000 C.3     1  UNL1        0.1144
     21 C          11.2697   -1.0950    0.0000 C.3     1  UNL1        0.1120
     22 C          12.1357   -0.5950    0.0000 C.3     1  UNL1        0.1152
     23 C          12.1357    0.4050    0.0000 C.3     1  UNL1        0.1454
     24 C           8.6716   -3.5950    0.0000 C.3     1  UNL1        0.1341
     25 C           8.6716   -2.5950    0.0000 C.3     1  UNL1        0.1879
     26 C           7.8056   -4.0950    0.0000 C.3     1  UNL1        0.1140
     27 C          11.2697    0.9050    0.0000 C.3     1  UNL1        0.2311
     28 C           6.9396   -3.5950    0.0000 C.3     1  UNL1        0.1095
     29 C           9.5376   -1.0950    0.0000 C.3     1  UNL1        0.0796
     30 C           6.9396   -2.5950    0.0000 C.3     1  UNL1        0.0873
     31 C           4.2678    1.9358    0.0000 C.3     1  UNL1        0.1151
     32 C           3.4037    2.4392    0.0000 C.3     1  UNL1        0.1096
     33 C           5.1357    2.4325    0.0000 C.3     1  UNL1        0.1454
     34 C           3.4075    3.4392    0.0000 C.3     1  UNL1        0.0883
     35 C           5.1396    3.4325    0.0000 C.3     1  UNL1        0.2307
     36 C           6.0736   -2.0950    0.0000 C.3     1  UNL1       -0.0361
     37 C           2.5434    3.9425    0.0000 C.3     1  UNL1       -0.0360
     38 C          10.4037    2.4050    0.0000 C.ar    1  UNL1        0.2138
     39 C          10.4037    3.4050    0.0000 C.ar    1  UNL1        0.1809
     40 C           9.5376    1.9050    0.0000 C.ar    1  UNL1        0.2382
     41 C           6.8716    3.4258    0.0000 C.ar    1  UNL1        0.1310
     42 C           8.6716    2.4050    0.0000 C.ar    1  UNL1        0.1092
     43 C           8.6716    3.4050    0.0000 C.ar    1  UNL1        0.1465
     44 C           7.7777    3.9397    0.0000 C.ar    1  UNL1        0.0235
     45 C           6.8716    2.3842    0.0000 C.ar    1  UNL1        0.0226
     46 C           7.7777    1.8703    0.0000 C.ar    1  UNL1        0.1348
     47 C          11.2697    3.9050    0.0000 C.ar    1  UNL1        0.0213
     48 C          11.2697    4.9050    0.0000 C.ar    1  UNL1       -0.0475
     49 C          12.1357    3.4050    0.0000 C.ar    1  UNL1       -0.0475
     50 C          12.1357    5.4050    0.0000 C.ar    1  UNL1       -0.0195
     51 C          13.0017    3.9050    0.0000 C.ar    1  UNL1       -0.0195
     52 C          13.0017    4.9050    0.0000 C.ar    1  UNL1        0.1169
     53 H           9.8667   -0.2850    0.0000 H       1  UNL1        0.0647
     54 H          10.7328   -1.4050    0.0000 H       1  UNL1        0.0647
     55 H          12.1357   -1.2150    0.0000 H       1  UNL1        0.0648
     56 H          12.6727    0.0950    0.0000 H       1  UNL1        0.0683
     57 H           9.2086   -3.2850    0.0000 H       1  UNL1        0.0671
     58 H           8.6716   -1.9750    0.0000 H       1  UNL1        0.0937
     59 H           8.3425   -4.4050    0.0000 H       1  UNL1        0.0648
     60 H          10.7328    1.2150    0.0000 H       1  UNL1        0.1084
     61 H           6.4026   -3.2850    0.0000 H       1  UNL1        0.0646
     62 H           9.3256   -0.5124    0.0000 H       1  UNL1        0.0587
     63 H           8.9271   -1.2027    0.0000 H       1  UNL1        0.0587
     64 H           6.9396   -1.9750    0.0000 H       1  UNL1        0.0621
     65 H           3.7296    1.6279    0.0000 H       1  UNL1        0.0648
     66 H           2.8680    2.7512    0.0000 H       1  UNL1        0.0646
     67 H           5.6738    2.7404    0.0000 H       1  UNL1        0.0683
     68 H           3.4099    4.0592    0.0000 H       1  UNL1        0.0621
     69 H           5.1420    4.0525    0.0000 H       1  UNL1        0.1084
     70 H           6.3835   -1.5581    0.0000 H       1  UNL1        0.0255
     71 H           5.5366   -1.7850    0.0000 H       1  UNL1        0.0255
     72 H           5.7636   -2.6319    0.0000 H       1  UNL1        0.0255
     73 H          11.8066   -2.4050    0.0000 H       1  UNL1        0.2100
     74 H          13.5387   -0.7850    0.0000 H       1  UNL1        0.2100
     75 H          13.0017    1.5250    0.0000 H       1  UNL1        0.2102
     76 H          10.0746   -3.7850    0.0000 H       1  UNL1        0.2101
     77 H           7.2687   -5.4050    0.0000 H       1  UNL1        0.2100
     78 H           5.5366   -3.7850    0.0000 H       1  UNL1        0.2100
     79 H           2.8555    4.4782    0.0000 H       1  UNL1        0.0255
     80 H           2.0077    4.2546    0.0000 H       1  UNL1        0.0255
     81 H           2.2314    3.4068    0.0000 H       1  UNL1        0.0255
     82 H           3.7258    0.6279    0.0000 H       1  UNL1        0.2100
     83 H           2.0000    2.2546    0.0000 H       1  UNL1        0.2100
     84 H           5.9974    1.3092    0.0000 H       1  UNL1        0.2102
     85 H           7.7848    4.5596    0.0000 H       1  UNL1        0.0691
     86 H           6.3359    2.0721    0.0000 H       1  UNL1        0.0691
     87 H          10.7328    5.2150    0.0000 H       1  UNL1        0.0626
     88 H          12.1357    2.7850    0.0000 H       1  UNL1        0.0626
     89 H           7.2559    0.5542    0.0000 H       1  UNL1        0.2922
     90 H          12.1357    6.0250    0.0000 H       1  UNL1        0.0654
     91 H          13.5387    3.5950    0.0000 H       1  UNL1        0.0654
     92 H          14.4047    5.0950    0.0000 H       1  UNL1        0.2921
@<TRIPOS>BOND
     1     1    20    1
     2     1    27    1
     3    25     2    1
     4     2    29    1
     5     3    25    1
     6     3    30    1
     7    21     4    1
     8     4    73    1
     9    27     5    1
    10     5    38    1
    11    22     6    1
    12     6    74    1
    13    23     7    1
    14     7    75    1
    15    24     8    1
    16     8    76    1
    17     9    34    1
    18     9    35    1
    19    26    10    1
    20    10    77    1
    21    28    11    1
    22    11    78    1
    23    35    12    1
    24    12    41    1
    25    31    13    1
    26    13    82    1
    27    32    14    1
    28    14    83    1
    29    33    15    1
    30    15    84    1
    31    16    39   ar
    32    16    43   ar
    33    17    40    2
    34    18    46    1
    35    18    89    1
    36    19    52    1
    37    19    92    1
    38    20    21    1
    39    20    29    1
    40    20    53    1
    41    21    22    1
    42    21    54    1
    43    22    23    1
    44    22    55    1
    45    23    27    1
    46    23    56    1
    47    24    25    1
    48    24    26    1
    49    24    57    1
    50    25    58    1
    51    26    28    1
    52    26    59    1
    53    27    60    1
    54    28    30    1
    55    28    61    1
    56    29    62    1
    57    29    63    1
    58    30    36    1
    59    30    64    1
    60    31    32    1
    61    31    33    1
    62    31    65    1
    63    32    34    1
    64    32    66    1
    65    33    35    1
    66    33    67    1
    67    34    37    1
    68    34    68    1
    69    35    69    1
    70    36    70    1
    71    36    71    1
    72    36    72    1
    73    37    79    1
    74    37    80    1
    75    37    81    1
    76    38    39   ar
    77    38    40   ar
    78    39    47    1
    79    40    42   ar
    80    41    44   ar
    81    41    45   ar
    82    42    43   ar
    83    42    46   ar
    84    43    44   ar
    85    44    85    1
    86    45    46   ar
    87    45    86    1
    88    47    48   ar
    89    47    49   ar
    90    48    50   ar
    91    48    87    1
    92    49    51   ar
    93    49    88    1
    94    50    52   ar
    95    50    90    1
    96    51    52   ar
    97    51    91    1
