@<TRIPOS>MOLECULE
IMPHY011152
 67 69 0 0 0
SMALL
GASTEIGER

@<TRIPOS>ATOM
      1 O           2.3337   -2.7813    0.0000 O.3     1  UNL1       -0.3466
      2 O           7.3816   -0.2362    0.0000 O.3     1  UNL1       -0.4538
      3 O           5.6077    0.7880    0.0000 O.3     1  UNL1       -0.4543
      4 O           2.6067   -1.0260    0.0000 O.3     1  UNL1       -0.3664
      5 O           6.5214    1.2672    0.0000 O.2     1  UNL1       -0.2453
      6 O           3.8757    0.7813    0.0000 O.2     1  UNL1       -0.2453
      7 C           4.7296   -1.7813    0.0000 C.3     1  UNL1       -0.0137
      8 C           5.5956   -2.2813    0.0000 C.3     1  UNL1       -0.0227
      9 C           6.5056   -1.7744    0.0000 C.3     1  UNL1        0.0093
     10 C           3.8636   -2.2813    0.0000 C.3     1  UNL1        0.0389
     11 C           4.7135   -0.7398    0.0000 C.3     1  UNL1       -0.0057
     12 C           6.5136   -0.7328    0.0000 C.3     1  UNL1        0.1454
     13 C           5.6116   -0.2120    0.0000 C.3     1  UNL1        0.1411
     14 C           5.5956   -3.2813    0.0000 C.3     1  UNL1       -0.0305
     15 C           3.8636   -3.2813    0.0000 C.2     1  UNL1       -0.0396
     16 C           3.8636   -1.2813    0.0000 C.3     1  UNL1       -0.0585
     17 C           2.9173   -1.9766    0.0000 C.3     1  UNL1        0.1636
     18 C           7.5055   -1.7860    0.0000 C.3     1  UNL1       -0.0560
     19 C           6.9956   -2.6462    0.0000 C.3     1  UNL1       -0.0560
     20 C           4.7296   -3.7813    0.0000 C.2     1  UNL1       -0.0819
     21 C           2.9173   -3.5860    0.0000 C.3     1  UNL1        0.0722
     22 C           7.3854    0.7638    0.0000 C.2     1  UNL1        0.3350
     23 C           4.7398    1.2846    0.0000 C.2     1  UNL1        0.3349
     24 C           8.2534    1.2605    0.0000 C.2     1  UNL1        0.0293
     25 C           4.7359    2.2846    0.0000 C.2     1  UNL1        0.0293
     26 C           9.1175    0.7571    0.0000 C.3     1  UNL1       -0.0333
     27 C           5.6000    2.7880    0.0000 C.3     1  UNL1       -0.0333
     28 C           8.2572    2.2605    0.0000 C.2     1  UNL1       -0.0774
     29 C           3.8680    2.7813    0.0000 C.2     1  UNL1       -0.0774
     30 C           9.1252    2.7571    0.0000 C.3     1  UNL1       -0.0461
     31 C           3.8641    3.7813    0.0000 C.3     1  UNL1       -0.0461
     32 H           6.3284   -2.7119    0.0000 H       1  UNL1        0.0316
     33 H           4.5997   -2.7063    0.0000 H       1  UNL1        0.0401
     34 H           4.4955   -0.1594    0.0000 H       1  UNL1        0.0308
     35 H           4.1044   -0.8553    0.0000 H       1  UNL1        0.0308
     36 H           7.0488   -1.0459    0.0000 H       1  UNL1        0.0777
     37 H           6.1479    0.0990    0.0000 H       1  UNL1        0.0772
     38 H           5.8077   -3.8639    0.0000 H       1  UNL1        0.0310
     39 H           6.2062   -3.1736    0.0000 H       1  UNL1        0.0310
     40 H           4.1736   -0.7443    0.0000 H       1  UNL1        0.0235
     41 H           3.3266   -0.9713    0.0000 H       1  UNL1        0.0235
     42 H           3.5536   -1.8182    0.0000 H       1  UNL1        0.0235
     43 H           3.3548   -1.5372    0.0000 H       1  UNL1        0.0914
     44 H           7.4984   -2.4059    0.0000 H       1  UNL1        0.0236
     45 H           8.1255   -1.7932    0.0000 H       1  UNL1        0.0236
     46 H           7.5127   -1.1660    0.0000 H       1  UNL1        0.0236
     47 H           6.4551   -2.9500    0.0000 H       1  UNL1        0.0236
     48 H           7.2993   -3.1867    0.0000 H       1  UNL1        0.0236
     49 H           7.5360   -2.3424    0.0000 H       1  UNL1        0.0236
     50 H           4.7296   -4.4013    0.0000 H       1  UNL1        0.0573
     51 H           2.3800   -3.8952    0.0000 H       1  UNL1        0.0608
     52 H           3.1684   -4.1529    0.0000 H       1  UNL1        0.0608
     53 H           2.0000   -0.8982    0.0000 H       1  UNL1        0.2125
     54 H           8.8054    0.2214    0.0000 H       1  UNL1        0.0280
     55 H           9.6532    0.4451    0.0000 H       1  UNL1        0.0280
     56 H           9.4295    1.2929    0.0000 H       1  UNL1        0.0280
     57 H           5.9121    2.2522    0.0000 H       1  UNL1        0.0280
     58 H           6.1357    3.1000    0.0000 H       1  UNL1        0.0280
     59 H           5.2879    3.3237    0.0000 H       1  UNL1        0.0280
     60 H           7.7215    2.5725    0.0000 H       1  UNL1        0.0574
     61 H           3.3322    2.4692    0.0000 H       1  UNL1        0.0574
     62 H           9.4331    2.2190    0.0000 H       1  UNL1        0.0272
     63 H           9.6633    3.0651    0.0000 H       1  UNL1        0.0272
     64 H           8.8173    3.2952    0.0000 H       1  UNL1        0.0272
     65 H           4.4841    3.7837    0.0000 H       1  UNL1        0.0272
     66 H           3.8617    4.4013    0.0000 H       1  UNL1        0.0272
     67 H           3.2441    3.7789    0.0000 H       1  UNL1        0.0272
@<TRIPOS>BOND
     1     1    17    1
     2     1    21    1
     3    12     2    1
     4     2    22    1
     5    13     3    1
     6     3    23    1
     7    17     4    1
     8     4    53    1
     9     5    22    2
    10     6    23    2
    11     7     8    1
    12     7    10    1
    13     7    11    1
    14     7    16    1
    15     8     9    1
    16     8    14    1
    17     8    32    1
    18     9    12    1
    19     9    18    1
    20     9    19    1
    21    10    15    1
    22    10    17    1
    23    10    33    1
    24    11    13    1
    25    11    34    1
    26    11    35    1
    27    12    13    1
    28    12    36    1
    29    13    37    1
    30    14    20    1
    31    14    38    1
    32    14    39    1
    33    15    20    2
    34    15    21    1
    35    16    40    1
    36    16    41    1
    37    16    42    1
    38    17    43    1
    39    18    44    1
    40    18    45    1
    41    18    46    1
    42    19    47    1
    43    19    48    1
    44    19    49    1
    45    20    50    1
    46    21    51    1
    47    21    52    1
    48    22    24    1
    49    23    25    1
    50    24    26    1
    51    24    28    2
    52    25    27    1
    53    25    29    2
    54    26    54    1
    55    26    55    1
    56    26    56    1
    57    27    57    1
    58    27    58    1
    59    27    59    1
    60    28    30    1
    61    28    60    1
    62    29    31    1
    63    29    61    1
    64    30    62    1
    65    30    63    1
    66    30    64    1
    67    31    65    1
    68    31    66    1
    69    31    67    1
