@<TRIPOS>MOLECULE
IMPHY014798
 39 40 0 0 0
SMALL
GASTEIGER

@<TRIPOS>ATOM
      1 O           5.4641   -1.0173    0.0000 O.3     1  UNL1       -0.3720
      2 O           6.3580    0.4480    0.0000 O.2     1  UNL1       -0.4217
      3 O           2.8660   -0.5173    0.0000 O.3     1  UNL1       -0.3846
      4 O           2.8660    0.4827    0.0000 O.3     1  UNL1       -0.4946
      5 O           8.1282    0.4585    0.0000 O.2     1  UNL1       -0.2452
      6 C           4.5981   -0.5173    0.0000 C.3     1  UNL1        0.1197
      7 C           4.5981    0.4827    0.0000 C.ar    1  UNL1        0.0684
      8 C           3.7320   -1.0173    0.0000 C.3     1  UNL1        0.1062
      9 C           5.4641    0.9827    0.0000 C.ar    1  UNL1        0.1483
     10 C           3.7320    0.9827    0.0000 C.ar    1  UNL1        0.1294
     11 C           5.4641    1.9827    0.0000 C.ar    1  UNL1        0.0182
     12 C           3.7320   -2.0173    0.0000 C.2     1  UNL1       -0.0488
     13 C           3.7320    1.9827    0.0000 C.ar    1  UNL1       -0.0188
     14 C           4.5981    2.4827    0.0000 C.ar    1  UNL1       -0.0476
     15 C           6.3580    2.5173    0.0000 C.ar    1  UNL1       -0.0443
     16 C           2.8660   -2.5173    0.0000 C.3     1  UNL1       -0.0415
     17 C           5.4641   -2.0173    0.0000 C.3     1  UNL1        0.0374
     18 C           4.5981   -2.5173    0.0000 C.2     1  UNL1       -0.0972
     19 C           7.2641    2.0035    0.0000 C.ar    1  UNL1        0.0236
     20 C           7.2641    0.9619    0.0000 C.ar    1  UNL1        0.3372
     21 C           2.0000    0.9827    0.0000 C.3     1  UNL1        0.0788
     22 H           4.5981   -1.1373    0.0000 H       1  UNL1        0.0678
     23 H           3.7320   -0.3973    0.0000 H       1  UNL1        0.0670
     24 H           3.1951    2.2927    0.0000 H       1  UNL1        0.0654
     25 H           4.5981    3.1027    0.0000 H       1  UNL1        0.0626
     26 H           6.3509    3.1373    0.0000 H       1  UNL1        0.0627
     27 H           2.5560   -1.9804    0.0000 H       1  UNL1        0.0275
     28 H           2.3291   -2.8273    0.0000 H       1  UNL1        0.0275
     29 H           3.1760   -3.0543    0.0000 H       1  UNL1        0.0275
     30 H           2.3291   -0.8273    0.0000 H       1  UNL1        0.2103
     31 H           4.8441   -2.0173    0.0000 H       1  UNL1        0.0524
     32 H           5.4641   -2.6373    0.0000 H       1  UNL1        0.0524
     33 H           6.0841   -2.0173    0.0000 H       1  UNL1        0.0524
     34 H           4.5981   -3.1373    0.0000 H       1  UNL1        0.0535
     35 H           5.1350   -2.2073    0.0000 H       1  UNL1        0.0535
     36 H           7.7998    2.3156    0.0000 H       1  UNL1        0.0689
     37 H           2.3100    1.5196    0.0000 H       1  UNL1        0.0660
     38 H           1.4631    1.2927    0.0000 H       1  UNL1        0.0660
     39 H           1.6900    0.4457    0.0000 H       1  UNL1        0.0660
@<TRIPOS>BOND
     1     1     6    1
     2     1    17    1
     3     2     9   ar
     4     2    20   ar
     5     3     8    1
     6     3    30    1
     7     4    10    1
     8     4    21    1
     9     5    20    2
    10     6     7    1
    11     6     8    1
    12     6    22    1
    13     7     9   ar
    14     7    10   ar
    15     8    12    1
    16     8    23    1
    17     9    11   ar
    18    10    13   ar
    19    11    14   ar
    20    11    15   ar
    21    12    16    1
    22    12    18    2
    23    13    14   ar
    24    13    24    1
    25    14    25    1
    26    15    19   ar
    27    15    26    1
    28    16    27    1
    29    16    28    1
    30    16    29    1
    31    17    31    1
    32    17    32    1
    33    17    33    1
    34    18    34    1
    35    18    35    1
    36    19    20   ar
    37    19    36    1
    38    21    37    1
    39    21    38    1
    40    21    39    1
