@<TRIPOS>MOLECULE
IMPHY013049
 34 37 0 0 0
SMALL
GASTEIGER

@<TRIPOS>ATOM
      1 O           7.2304   -0.7849    0.0000 O.2     1  UNL1       -0.4545
      2 O          10.8026   -0.5550    0.0000 O.2     1  UNL1       -0.4628
      3 O           7.2419    2.2844    0.0000 O.2     1  UNL1       -0.2870
      4 O           2.8680   -2.2844    0.0000 O.3     1  UNL1       -0.4951
      5 C           8.1243    0.7498    0.0000 C.ar    1  UNL1        0.0648
      6 C           8.1243   -0.2502    0.0000 C.ar    1  UNL1        0.1428
      7 C           9.8564    0.7498    0.0000 C.ar    1  UNL1        0.0210
      8 C           9.8564   -0.2502    0.0000 C.ar    1  UNL1        0.1383
      9 C           8.9904    1.2498    0.0000 C.ar    1  UNL1       -0.0366
     10 C           8.9904   -0.7502    0.0000 C.ar    1  UNL1        0.0243
     11 C           6.3243   -0.2710    0.0000 C.ar    1  UNL1        0.1392
     12 C           7.2304    1.2844    0.0000 C.ar    1  UNL1        0.1931
     13 C           5.4602   -0.7744    0.0000 C.ar    1  UNL1        0.0176
     14 C           6.3243    0.7706    0.0000 C.ar    1  UNL1        0.0287
     15 C          10.8026    1.0545    0.0000 C.ar    1  UNL1       -0.0161
     16 C           5.4641   -1.7744    0.0000 C.ar    1  UNL1       -0.0476
     17 C           4.5923   -0.2777    0.0000 C.ar    1  UNL1       -0.0476
     18 C          11.3862    0.2498    0.0000 C.ar    1  UNL1        0.0931
     19 C           4.6000   -2.2777    0.0000 C.ar    1  UNL1       -0.0193
     20 C           3.7282   -0.7810    0.0000 C.ar    1  UNL1       -0.0193
     21 C           3.7320   -1.7810    0.0000 C.ar    1  UNL1        0.1201
     22 C           2.0000   -1.7877    0.0000 C.3     1  UNL1        0.0788
     23 H           8.9904    1.8698    0.0000 H       1  UNL1        0.0633
     24 H           8.9904   -1.3702    0.0000 H       1  UNL1        0.0692
     25 H           5.7886    1.0827    0.0000 H       1  UNL1        0.0693
     26 H          10.9952    1.6438    0.0000 H       1  UNL1        0.0655
     27 H           6.0022   -2.0823    0.0000 H       1  UNL1        0.0626
     28 H           4.5899    0.3423    0.0000 H       1  UNL1        0.0626
     29 H          12.0062    0.2498    0.0000 H       1  UNL1        0.1029
     30 H           4.6024   -2.8977    0.0000 H       1  UNL1        0.0654
     31 H           3.1901   -0.4731    0.0000 H       1  UNL1        0.0654
     32 H           2.3079   -1.2496    0.0000 H       1  UNL1        0.0660
     33 H           1.4619   -1.4798    0.0000 H       1  UNL1        0.0660
     34 H           1.6921   -2.3258    0.0000 H       1  UNL1        0.0660
@<TRIPOS>BOND
     1     1     6   ar
     2     1    11   ar
     3     2     8   ar
     4     2    18   ar
     5     3    12    2
     6     4    21    1
     7     4    22    1
     8     5     6   ar
     9     5     9   ar
    10     5    12   ar
    11     6    10   ar
    12     7     8   ar
    13     7     9   ar
    14     7    15   ar
    15     8    10   ar
    16     9    23    1
    17    10    24    1
    18    11    13    1
    19    11    14   ar
    20    12    14   ar
    21    13    16   ar
    22    13    17   ar
    23    14    25    1
    24    15    18   ar
    25    15    26    1
    26    16    19   ar
    27    16    27    1
    28    17    20   ar
    29    17    28    1
    30    18    29    1
    31    19    21   ar
    32    19    30    1
    33    20    21   ar
    34    20    31    1
    35    22    32    1
    36    22    33    1
    37    22    34    1
