@<TRIPOS>MOLECULE
IMPHY007747
 30 30 0 0 0
SMALL
GASTEIGER

@<TRIPOS>ATOM
      1 O           3.7320    1.2500    0.0000 O.3     1  UNL1       -0.4257
      2 O           5.4641    1.2500    0.0000 O.2     1  UNL1       -0.2507
      3 C           5.4641   -1.7500    0.0000 C.3     1  UNL1       -0.0214
      4 C           4.5981   -1.2500    0.0000 C.ar    1  UNL1       -0.0413
      5 C           5.4641   -2.7500    0.0000 C.3     1  UNL1       -0.0586
      6 C           6.3301   -1.2500    0.0000 C.3     1  UNL1       -0.0586
      7 C           4.5981   -0.2500    0.0000 C.ar    1  UNL1       -0.0155
      8 C           3.7320   -1.7500    0.0000 C.ar    1  UNL1       -0.0579
      9 C           3.7320    0.2500    0.0000 C.ar    1  UNL1        0.1348
     10 C           2.8660   -0.2500    0.0000 C.ar    1  UNL1       -0.0081
     11 C           2.8660   -1.2500    0.0000 C.ar    1  UNL1       -0.0551
     12 C           2.0000    0.2500    0.0000 C.3     1  UNL1       -0.0362
     13 C           4.5981    1.7500    0.0000 C.2     1  UNL1        0.3092
     14 C           4.5981    2.7500    0.0000 C.3     1  UNL1        0.0336
     15 H           5.4641   -1.1300    0.0000 H       1  UNL1        0.0343
     16 H           5.1350    0.0600    0.0000 H       1  UNL1        0.0657
     17 H           4.8441   -2.7500    0.0000 H       1  UNL1        0.0235
     18 H           5.4641   -3.3700    0.0000 H       1  UNL1        0.0235
     19 H           6.0841   -2.7500    0.0000 H       1  UNL1        0.0235
     20 H           6.6401   -1.7869    0.0000 H       1  UNL1        0.0235
     21 H           6.8671   -0.9400    0.0000 H       1  UNL1        0.0235
     22 H           6.0201   -0.7131    0.0000 H       1  UNL1        0.0235
     23 H           3.7320   -2.3700    0.0000 H       1  UNL1        0.0620
     24 H           2.3291   -1.5600    0.0000 H       1  UNL1        0.0621
     25 H           2.3100    0.7869    0.0000 H       1  UNL1        0.0279
     26 H           1.4631    0.5600    0.0000 H       1  UNL1        0.0279
     27 H           1.6900   -0.2869    0.0000 H       1  UNL1        0.0279
     28 H           5.2181    2.7500    0.0000 H       1  UNL1        0.0342
     29 H           4.5981    3.3700    0.0000 H       1  UNL1        0.0342
     30 H           3.9781    2.7500    0.0000 H       1  UNL1        0.0342
@<TRIPOS>BOND
     1     1     9    1
     2     1    13    1
     3     2    13    2
     4     3     4    1
     5     3     5    1
     6     3     6    1
     7     3    15    1
     8     4     7   ar
     9     4     8   ar
    10     5    17    1
    11     5    18    1
    12     5    19    1
    13     6    20    1
    14     6    21    1
    15     6    22    1
    16     7     9   ar
    17     7    16    1
    18     8    11   ar
    19     8    23    1
    20     9    10   ar
    21    10    11   ar
    22    10    12    1
    23    11    24    1
    24    12    25    1
    25    12    26    1
    26    12    27    1
    27    13    14    1
    28    14    28    1
    29    14    29    1
    30    14    30    1
