@<TRIPOS>MOLECULE
IMPHY007425
 32 34 0 0 0
SMALL
GASTEIGER

@<TRIPOS>ATOM
      1 O           6.0682   -0.0950    0.0000 O.3     1  UNL1       -0.4830
      2 O           6.0682    2.9050    0.0000 O.2     1  UNL1       -0.2918
      3 O           8.6663   -2.5950    0.0000 O.3     1  UNL1       -0.5033
      4 O           2.5381   -0.1192    0.0000 O.3     1  UNL1       -0.5066
      5 O          10.3984   -1.5950    0.0000 O.3     1  UNL1       -0.5033
      6 C           6.9343    0.4050    0.0000 C.3     1  UNL1        0.1323
      7 C           6.9343    1.4050    0.0000 C.3     1  UNL1        0.0519
      8 C           7.8003   -0.0950    0.0000 C.ar    1  UNL1       -0.0033
      9 C           6.0682    1.9050    0.0000 C.2     1  UNL1        0.1705
     10 C           5.2022    1.4050    0.0000 C.ar    1  UNL1        0.0594
     11 C           5.2022    0.4050    0.0000 C.ar    1  UNL1        0.1353
     12 C           7.8003   -1.0950    0.0000 C.ar    1  UNL1       -0.0099
     13 C           8.6663    0.4050    0.0000 C.ar    1  UNL1       -0.0514
     14 C           4.3083    1.9397    0.0000 C.ar    1  UNL1       -0.0443
     15 C           4.3083   -0.1297    0.0000 C.ar    1  UNL1        0.0223
     16 C           8.6663   -1.5950    0.0000 C.ar    1  UNL1        0.1586
     17 C           3.4022    0.3842    0.0000 C.ar    1  UNL1        0.1204
     18 C           3.4022    1.4258    0.0000 C.ar    1  UNL1       -0.0193
     19 C           9.5323   -0.0950    0.0000 C.ar    1  UNL1       -0.0162
     20 C           9.5323   -1.0950    0.0000 C.ar    1  UNL1        0.1582
     21 H           6.9343   -0.2150    0.0000 H       1  UNL1        0.0789
     22 H           7.5449    1.2973    0.0000 H       1  UNL1        0.0385
     23 H           7.1463    1.9876    0.0000 H       1  UNL1        0.0385
     24 H           7.2634   -1.4050    0.0000 H       1  UNL1        0.0659
     25 H           8.6663    1.0250    0.0000 H       1  UNL1        0.0623
     26 H           4.3154    2.5596    0.0000 H       1  UNL1        0.0627
     27 H           4.3154   -0.7496    0.0000 H       1  UNL1        0.0691
     28 H          10.0693    0.2150    0.0000 H       1  UNL1        0.0655
     29 H           2.8665    1.7379    0.0000 H       1  UNL1        0.0654
     30 H           8.1294   -2.9050    0.0000 H       1  UNL1        0.2923
     31 H           2.0000    0.1888    0.0000 H       1  UNL1        0.2921
     32 H          10.9353   -1.2850    0.0000 H       1  UNL1        0.2923
@<TRIPOS>BOND
     1     1     6    1
     2     1    11    1
     3     2     9    2
     4     3    16    1
     5     3    30    1
     6     4    17    1
     7     4    31    1
     8     5    20    1
     9     5    32    1
    10     6     7    1
    11     6     8    1
    12     6    21    1
    13     7     9    1
    14     7    22    1
    15     7    23    1
    16     8    12   ar
    17     8    13   ar
    18     9    10    1
    19    10    11   ar
    20    10    14   ar
    21    11    15   ar
    22    12    16   ar
    23    12    24    1
    24    13    19   ar
    25    13    25    1
    26    14    18   ar
    27    14    26    1
    28    15    17   ar
    29    15    27    1
    30    16    20   ar
    31    17    18   ar
    32    18    29    1
    33    19    20   ar
    34    19    28    1
