@<TRIPOS>MOLECULE
IMPHY014575
 46 48 0 0 0
SMALL
GASTEIGER

@<TRIPOS>ATOM
      1 O           3.5836   -0.2583    0.0000 O.3     1  UNL1       -0.4602
      2 O           8.0321   -0.5662    0.0000 O.3     1  UNL1       -0.4609
      3 O           6.2740    2.5062    0.0000 O.3     1  UNL1       -0.3874
      4 O           2.0000   -1.0630    0.0000 O.2     1  UNL1       -0.2505
      5 O           8.9154    0.9237    0.0000 O.2     1  UNL1       -0.2512
      6 C           6.2619   -0.5630    0.0000 C.3     1  UNL1        0.0150
      7 C           5.3958   -0.0630    0.0000 C.3     1  UNL1        0.0284
      8 C           4.5298   -0.5630    0.0000 C.3     1  UNL1        0.1137
      9 C           4.5298   -1.5630    0.0000 C.3     1  UNL1        0.0094
     10 C           6.2619   -1.5630    0.0000 C.3     1  UNL1       -0.0432
     11 C           7.1719   -0.0562    0.0000 C.3     1  UNL1        0.1117
     12 C           5.3958   -2.0630    0.0000 C.3     1  UNL1       -0.0455
     13 C           3.5836   -1.8678    0.0000 C.3     1  UNL1        0.0598
     14 C           5.3798    0.9785    0.0000 C.2     1  UNL1       -0.0412
     15 C           7.1799    0.9854    0.0000 C.3     1  UNL1        0.0148
     16 C           7.1279   -1.0630    0.0000 C.3     1  UNL1       -0.0555
     17 C           6.2778    1.5062    0.0000 C.3     1  UNL1        0.0798
     18 C           3.0000   -1.0630    0.0000 C.2     1  UNL1        0.3106
     19 C           3.2729   -2.8183    0.0000 C.3     1  UNL1       -0.0519
     20 C           4.5080    1.4684    0.0000 C.2     1  UNL1       -0.0966
     21 C           8.9038   -0.0762    0.0000 C.2     1  UNL1        0.3042
     22 C           9.7640   -0.5862    0.0000 C.3     1  UNL1        0.0332
     23 H           6.1287    0.3676    0.0000 H       1  UNL1        0.0389
     24 H           4.4399    0.2822    0.0000 H       1  UNL1        0.0743
     25 H           4.4399   -2.4083    0.0000 H       1  UNL1        0.0344
     26 H           6.4739   -2.1456    0.0000 H       1  UNL1        0.0272
     27 H           6.8725   -1.4554    0.0000 H       1  UNL1        0.0272
     28 H           7.7118    0.2486    0.0000 H       1  UNL1        0.0740
     29 H           4.9973   -2.5380    0.0000 H       1  UNL1        0.0269
     30 H           5.7944   -2.5380    0.0000 H       1  UNL1        0.0269
     31 H           2.9711   -1.9640    0.0000 H       1  UNL1        0.0415
     32 H           7.7899    0.8746    0.0000 H       1  UNL1        0.0329
     33 H           7.3935    1.5675    0.0000 H       1  UNL1        0.0329
     34 H           6.8179   -1.6000    0.0000 H       1  UNL1        0.0236
     35 H           7.6648   -1.3730    0.0000 H       1  UNL1        0.0236
     36 H           7.4379   -0.5261    0.0000 H       1  UNL1        0.0236
     37 H           6.8142    1.8173    0.0000 H       1  UNL1        0.0641
     38 H           2.6836   -2.6257    0.0000 H       1  UNL1        0.0238
     39 H           3.0803   -3.4076    0.0000 H       1  UNL1        0.0238
     40 H           3.8623   -3.0109    0.0000 H       1  UNL1        0.0238
     41 H           4.5009    2.0884    0.0000 H       1  UNL1        0.0535
     42 H           3.9747    1.1522    0.0000 H       1  UNL1        0.0535
     43 H           6.8097    2.8183    0.0000 H       1  UNL1        0.2102
     44 H           9.4478   -1.1195    0.0000 H       1  UNL1        0.0342
     45 H          10.2973   -0.9024    0.0000 H       1  UNL1        0.0342
     46 H          10.0802   -0.0529    0.0000 H       1  UNL1        0.0342
@<TRIPOS>BOND
     1     1     8    1
     2     1    18    1
     3    11     2    1
     4     2    21    1
     5    17     3    1
     6     3    43    1
     7     4    18    2
     8     5    21    2
     9     6     7    1
    10     6    10    1
    11     6    11    1
    12     6    16    1
    13     7     8    1
    14     7    14    1
    15     7    23    1
    16     8     9    1
    17     8    24    1
    18     9    12    1
    19     9    13    1
    20     9    25    1
    21    10    12    1
    22    10    26    1
    23    10    27    1
    24    11    15    1
    25    11    28    1
    26    12    29    1
    27    12    30    1
    28    13    18    1
    29    13    19    1
    30    13    31    1
    31    14    17    1
    32    14    20    2
    33    15    17    1
    34    15    32    1
    35    15    33    1
    36    16    34    1
    37    16    35    1
    38    16    36    1
    39    17    37    1
    40    19    38    1
    41    19    39    1
    42    19    40    1
    43    20    41    1
    44    20    42    1
    45    21    22    1
    46    22    44    1
    47    22    45    1
    48    22    46    1
