@<TRIPOS>MOLECULE
IMPHY005264
 44 47 0 0 0
SMALL
GASTEIGER

@<TRIPOS>ATOM
      1 O           9.9346   -0.3827    0.0000 O.3     1  UNL1       -0.4837
      2 O           6.3624   -0.6126    0.0000 O.3     1  UNL1       -0.4802
      3 O           4.5923    1.4462    0.0000 O.3     1  UNL1       -0.3798
      4 O           8.1224    2.4221    0.0000 O.3     1  UNL1       -0.5055
      5 O           6.3740    2.4567    0.0000 O.2     1  UNL1       -0.2889
      6 O           2.0000   -2.1121    0.0000 O.3     1  UNL1       -0.5068
      7 C           8.9884    0.9221    0.0000 C.ar    1  UNL1        0.0404
      8 C           9.9346    1.2268    0.0000 C.3     1  UNL1        0.0204
      9 C          10.5183    0.4221    0.0000 C.3     1  UNL1        0.1249
     10 C           5.4564   -0.0987    0.0000 C.3     1  UNL1        0.1581
     11 C           8.9884   -0.0779    0.0000 C.ar    1  UNL1        0.1317
     12 C           7.2564    0.9221    0.0000 C.ar    1  UNL1        0.1036
     13 C           5.4564    0.9429    0.0000 C.3     1  UNL1        0.1585
     14 C           7.2564   -0.0779    0.0000 C.ar    1  UNL1        0.1391
     15 C           8.1224    1.4221    0.0000 C.ar    1  UNL1        0.1377
     16 C           6.3624    1.4567    0.0000 C.2     1  UNL1        0.2024
     17 C           8.1224   -0.5779    0.0000 C.ar    1  UNL1        0.0231
     18 C           4.5923   -0.6021    0.0000 C.ar    1  UNL1       -0.0042
     19 C          11.5183    0.4221    0.0000 C.2     1  UNL1       -0.0395
     20 C          12.0183   -0.4440    0.0000 C.3     1  UNL1       -0.0406
     21 C           3.7243   -0.1054    0.0000 C.ar    1  UNL1       -0.0515
     22 C           4.5961   -1.6021    0.0000 C.ar    1  UNL1       -0.0515
     23 C          12.0183    1.2881    0.0000 C.2     1  UNL1       -0.0962
     24 C           2.8602   -0.6088    0.0000 C.ar    1  UNL1       -0.0198
     25 C           3.7320   -2.1054    0.0000 C.ar    1  UNL1       -0.0198
     26 C           2.8641   -1.6087    0.0000 C.ar    1  UNL1        0.1169
     27 H          10.4720    1.5360    0.0000 H       1  UNL1        0.0355
     28 H           9.6836    1.7937    0.0000 H       1  UNL1        0.0355
     29 H          10.8000   -0.1302    0.0000 H       1  UNL1        0.0784
     30 H           5.4600   -0.7187    0.0000 H       1  UNL1        0.0815
     31 H           5.4600    1.5629    0.0000 H       1  UNL1        0.0718
     32 H           8.1224   -1.1979    0.0000 H       1  UNL1        0.0691
     33 H          11.4813   -0.7540    0.0000 H       1  UNL1        0.0275
     34 H          12.3283   -0.9809    0.0000 H       1  UNL1        0.0275
     35 H          12.5552   -0.1340    0.0000 H       1  UNL1        0.0275
     36 H           3.7219    0.5146    0.0000 H       1  UNL1        0.0623
     37 H           5.1343   -1.9100    0.0000 H       1  UNL1        0.0623
     38 H           4.5947    2.0662    0.0000 H       1  UNL1        0.2105
     39 H           8.6593    2.7321    0.0000 H       1  UNL1        0.2922
     40 H          12.6383    1.2881    0.0000 H       1  UNL1        0.0535
     41 H          11.7083    1.8250    0.0000 H       1  UNL1        0.0535
     42 H           2.3221   -0.3008    0.0000 H       1  UNL1        0.0654
     43 H           3.7344   -2.7254    0.0000 H       1  UNL1        0.0654
     44 H           2.0024   -2.7321    0.0000 H       1  UNL1        0.2921
@<TRIPOS>BOND
     1     1     9    1
     2     1    11    1
     3     2    10    1
     4     2    14    1
     5    13     3    1
     6     3    38    1
     7     4    15    1
     8     4    39    1
     9     5    16    2
    10     6    26    1
    11     6    44    1
    12     7     8    1
    13     7    11   ar
    14     7    15   ar
    15     8     9    1
    16     8    27    1
    17     8    28    1
    18     9    19    1
    19     9    29    1
    20    10    13    1
    21    10    18    1
    22    10    30    1
    23    11    17   ar
    24    12    14   ar
    25    12    15   ar
    26    12    16    1
    27    13    16    1
    28    13    31    1
    29    14    17   ar
    30    17    32    1
    31    18    21   ar
    32    18    22   ar
    33    19    20    1
    34    19    23    2
    35    20    33    1
    36    20    34    1
    37    20    35    1
    38    21    24   ar
    39    21    36    1
    40    22    25   ar
    41    22    37    1
    42    23    40    1
    43    23    41    1
    44    24    26   ar
    45    24    42    1
    46    25    26   ar
    47    25    43    1
