@<TRIPOS>MOLECULE
IMPHY014271
 37 39 0 0 0
SMALL
GASTEIGER

@<TRIPOS>ATOM
      1 O           3.5836   -0.1023    0.0000 O.3     1  UNL1       -0.4530
      2 O           8.0321   -0.4101    0.0000 O.3     1  UNL1       -0.3905
      3 O           6.2740    2.6622    0.0000 O.2     1  UNL1       -0.2923
      4 O           2.0000   -0.9070    0.0000 O.2     1  UNL1       -0.2453
      5 C           6.2619   -0.4070    0.0000 C.3     1  UNL1        0.0194
      6 C           5.3958    0.0930    0.0000 C.2     1  UNL1       -0.0144
      7 C           6.2619   -1.4070    0.0000 C.3     1  UNL1       -0.0407
      8 C           4.5298   -0.4070    0.0000 C.3     1  UNL1        0.1326
      9 C           4.5298   -1.4070    0.0000 C.3     1  UNL1        0.0314
     10 C           5.3958   -1.9070    0.0000 C.3     1  UNL1       -0.0414
     11 C           7.1719    0.0998    0.0000 C.3     1  UNL1        0.0714
     12 C           7.1279   -0.9070    0.0000 C.3     1  UNL1       -0.0533
     13 C           5.3798    1.1345    0.0000 C.2     1  UNL1       -0.0047
     14 C           7.1799    1.1414    0.0000 C.3     1  UNL1        0.0370
     15 C           3.5836   -1.7117    0.0000 C.2     1  UNL1        0.0364
     16 C           6.2778    1.6623    0.0000 C.2     1  UNL1        0.1615
     17 C           3.0000   -0.9070    0.0000 C.2     1  UNL1        0.3356
     18 C           4.5080    1.6245    0.0000 C.3     1  UNL1       -0.0363
     19 C           3.2729   -2.6622    0.0000 C.2     1  UNL1       -0.0883
     20 H           6.4739   -1.9896    0.0000 H       1  UNL1        0.0275
     21 H           6.8725   -1.2993    0.0000 H       1  UNL1        0.0275
     22 H           4.4642    0.2095    0.0000 H       1  UNL1        0.0789
     23 H           4.4642   -2.0235    0.0000 H       1  UNL1        0.0390
     24 H           4.9973   -2.3819    0.0000 H       1  UNL1        0.0273
     25 H           5.7944   -2.3819    0.0000 H       1  UNL1        0.0273
     26 H           7.7118    0.4047    0.0000 H       1  UNL1        0.0606
     27 H           6.8179   -1.4439    0.0000 H       1  UNL1        0.0239
     28 H           7.6648   -1.2170    0.0000 H       1  UNL1        0.0239
     29 H           7.4379   -0.3701    0.0000 H       1  UNL1        0.0239
     30 H           7.7899    1.0306    0.0000 H       1  UNL1        0.0370
     31 H           7.3935    1.7235    0.0000 H       1  UNL1        0.0370
     32 H           4.8118    2.1649    0.0000 H       1  UNL1        0.0279
     33 H           3.9676    1.9282    0.0000 H       1  UNL1        0.0279
     34 H           4.2043    1.0840    0.0000 H       1  UNL1        0.0279
     35 H           8.5726   -0.1064    0.0000 H       1  UNL1        0.2098
     36 H           2.6663   -2.7901    0.0000 H       1  UNL1        0.0540
     37 H           3.6870   -3.1237    0.0000 H       1  UNL1        0.0540
@<TRIPOS>BOND
     1     1     8    1
     2     1    17    1
     3     2    11    1
     4     2    35    1
     5     3    16    2
     6     4    17    2
     7     5     6    1
     8     5     7    1
     9     5    11    1
    10     5    12    1
    11     6     8    1
    12     6    13    2
    13     7    10    1
    14     7    20    1
    15     7    21    1
    16     8     9    1
    17     8    22    1
    18     9    10    1
    19     9    15    1
    20     9    23    1
    21    10    24    1
    22    10    25    1
    23    11    14    1
    24    11    26    1
    25    12    27    1
    26    12    28    1
    27    12    29    1
    28    13    16    1
    29    13    18    1
    30    14    16    1
    31    14    30    1
    32    14    31    1
    33    15    17    1
    34    15    19    2
    35    18    32    1
    36    18    33    1
    37    18    34    1
    38    19    36    1
    39    19    37    1
