@<TRIPOS>MOLECULE
IMPHY001985
 48 50 0 0 0
SMALL
GASTEIGER

@<TRIPOS>ATOM
      1 O           3.7320    3.5194    0.0000 O.2     1  UNL1       -0.2923
      2 O           3.3660   -3.5194    0.0000 O.2     1  UNL1       -0.4704
      3 C           4.5981    1.0194    0.0000 C.3     1  UNL1       -0.0118
      4 C           4.5981    2.0194    0.0000 C.3     1  UNL1        0.0328
      5 C           5.4920    2.5541    0.0000 C.3     1  UNL1       -0.0245
      6 C           5.4920    0.4848    0.0000 C.3     1  UNL1       -0.0461
      7 C           3.7320    0.5194    0.0000 C.3     1  UNL1        0.0047
      8 C           6.3981    2.0402    0.0000 C.3     1  UNL1       -0.0472
      9 C           6.3981    0.9986    0.0000 C.3     1  UNL1       -0.0520
     10 C           4.5981    0.0194    0.0000 C.3     1  UNL1       -0.0581
     11 C           3.7320    2.5194    0.0000 C.2     1  UNL1        0.1602
     12 C           5.9820    3.4258    0.0000 C.3     1  UNL1       -0.0591
     13 C           4.9820    3.4143    0.0000 C.3     1  UNL1       -0.0591
     14 C           2.8660    1.0194    0.0000 C.2     1  UNL1       -0.0620
     15 C           2.8660    2.0194    0.0000 C.2     1  UNL1       -0.0193
     16 C           3.7320   -0.4806    0.0000 C.2     1  UNL1       -0.0757
     17 C           2.0000    0.5194    0.0000 C.3     1  UNL1       -0.0428
     18 C           2.8660   -0.9806    0.0000 C.2     1  UNL1       -0.0549
     19 C           2.8660   -1.9806    0.0000 C.ar    1  UNL1        0.0124
     20 C           2.0570   -2.5684    0.0000 C.ar    1  UNL1       -0.0168
     21 C           3.6750   -2.5684    0.0000 C.ar    1  UNL1        0.0988
     22 C           2.3660   -3.5194    0.0000 C.ar    1  UNL1        0.0923
     23 H           4.5915    2.8694    0.0000 H       1  UNL1        0.0392
     24 H           5.0874    0.0150    0.0000 H       1  UNL1        0.0271
     25 H           5.8856    0.0057    0.0000 H       1  UNL1        0.0271
     26 H           3.1951    0.2094    0.0000 H       1  UNL1        0.0394
     27 H           7.0089    1.9341    0.0000 H       1  UNL1        0.0271
     28 H           6.6071    2.6239    0.0000 H       1  UNL1        0.0271
     29 H           6.6071    0.4149    0.0000 H       1  UNL1        0.0266
     30 H           7.0089    1.1047    0.0000 H       1  UNL1        0.0266
     31 H           3.9781    0.0194    0.0000 H       1  UNL1        0.0236
     32 H           4.5981   -0.6006    0.0000 H       1  UNL1        0.0236
     33 H           5.2181    0.0194    0.0000 H       1  UNL1        0.0236
     34 H           6.5225    3.1221    0.0000 H       1  UNL1        0.0235
     35 H           6.2857    3.9663    0.0000 H       1  UNL1        0.0235
     36 H           5.4415    3.7296    0.0000 H       1  UNL1        0.0235
     37 H           5.5154    3.7305    0.0000 H       1  UNL1        0.0235
     38 H           4.6658    3.9476    0.0000 H       1  UNL1        0.0235
     39 H           4.4487    3.0981    0.0000 H       1  UNL1        0.0235
     40 H           2.3291    2.3294    0.0000 H       1  UNL1        0.0652
     41 H           4.2690   -0.7906    0.0000 H       1  UNL1        0.0578
     42 H           1.6900    1.0564    0.0000 H       1  UNL1        0.0275
     43 H           1.4631    0.2094    0.0000 H       1  UNL1        0.0275
     44 H           2.3100   -0.0175    0.0000 H       1  UNL1        0.0275
     45 H           2.3291   -0.6706    0.0000 H       1  UNL1        0.0621
     46 H           1.4674   -2.3768    0.0000 H       1  UNL1        0.0655
     47 H           4.2647   -2.3768    0.0000 H       1  UNL1        0.1035
     48 H           2.0016   -4.0210    0.0000 H       1  UNL1        0.1029
@<TRIPOS>BOND
     1     1    11    2
     2     2    21   ar
     3     2    22   ar
     4     3     4    1
     5     3     6    1
     6     3     7    1
     7     3    10    1
     8     4     5    1
     9     4    11    1
    10     4    23    1
    11     5     8    1
    12     5    12    1
    13     5    13    1
    14     6     9    1
    15     6    24    1
    16     6    25    1
    17     7    14    1
    18     7    16    1
    19     7    26    1
    20     8     9    1
    21     8    27    1
    22     8    28    1
    23     9    29    1
    24     9    30    1
    25    10    31    1
    26    10    32    1
    27    10    33    1
    28    11    15    1
    29    12    34    1
    30    12    35    1
    31    12    36    1
    32    13    37    1
    33    13    38    1
    34    13    39    1
    35    14    15    2
    36    14    17    1
    37    15    40    1
    38    16    18    2
    39    16    41    1
    40    17    42    1
    41    17    43    1
    42    17    44    1
    43    18    19    1
    44    18    45    1
    45    19    20   ar
    46    19    21   ar
    47    20    22   ar
    48    20    46    1
    49    21    47    1
    50    22    48    1
