@<TRIPOS>MOLECULE
IMPHY006473
 40 42 0 0 0
SMALL
GASTEIGER

@<TRIPOS>ATOM
      1 O           6.5731   -0.6644    0.0000 O.3     1  UNL1       -0.4516
      2 O           4.2479    2.0442    0.0000 O.3     1  UNL1       -0.4910
      3 O           2.7357    0.6626    0.0000 O.3     1  UNL1       -0.4911
      4 O           5.1533   -1.9230    0.0000 O.3     1  UNL1       -0.5030
      5 O           8.8983    2.0441    0.0000 O.3     1  UNL1       -0.5064
      6 C           6.0731    1.5262    0.0000 C.3     1  UNL1       -0.0162
      7 C           5.4496    0.7444    0.0000 C.ar    1  UNL1        0.0441
      8 C           7.0731    1.5262    0.0000 C.3     1  UNL1       -0.0165
      9 C           5.6721   -0.2306    0.0000 C.ar    1  UNL1        0.1767
     10 C           7.6966    0.7444    0.0000 C.ar    1  UNL1        0.0365
     11 C           4.4591    1.0667    0.0000 C.ar    1  UNL1        0.1686
     12 C           7.4741   -0.2306    0.0000 C.ar    1  UNL1        0.1353
     13 C           4.9196   -0.9507    0.0000 C.ar    1  UNL1        0.1661
     14 C           3.9219   -0.6514    0.0000 C.ar    1  UNL1        0.0399
     15 C           3.6901    0.3641    0.0000 C.ar    1  UNL1        0.1683
     16 C           8.6871    1.0667    0.0000 C.ar    1  UNL1        0.1235
     17 C           8.2266   -0.9508    0.0000 C.ar    1  UNL1       -0.0188
     18 C           3.1914   -1.3344    0.0000 C.3     1  UNL1       -0.0325
     19 C           9.4561    0.3641    0.0000 C.ar    1  UNL1       -0.0197
     20 C           9.2243   -0.6514    0.0000 C.ar    1  UNL1       -0.0548
     21 C           3.2958    2.3500    0.0000 C.3     1  UNL1        0.0790
     22 C           2.0000   -0.0148    0.0000 C.3     1  UNL1        0.0790
     23 H           6.2111    2.1307    0.0000 H       1  UNL1        0.0319
     24 H           5.5145    1.7952    0.0000 H       1  UNL1        0.0319
     25 H           7.6317    1.7952    0.0000 H       1  UNL1        0.0319
     26 H           6.9352    2.1306    0.0000 H       1  UNL1        0.0319
     27 H           8.0817   -1.5536    0.0000 H       1  UNL1        0.0654
     28 H           2.7680   -0.8815    0.0000 H       1  UNL1        0.0280
     29 H           2.7386   -1.7578    0.0000 H       1  UNL1        0.0280
     30 H           3.6149   -1.7872    0.0000 H       1  UNL1        0.0280
     31 H          10.0478    0.5491    0.0000 H       1  UNL1        0.0654
     32 H           9.6772   -1.0749    0.0000 H       1  UNL1        0.0620
     33 H           4.7038   -2.3500    0.0000 H       1  UNL1        0.2923
     34 H           3.4854    2.9402    0.0000 H       1  UNL1        0.0660
     35 H           2.7055    2.5395    0.0000 H       1  UNL1        0.0660
     36 H           3.1062    1.7596    0.0000 H       1  UNL1        0.0660
     37 H           9.4886    2.2337    0.0000 H       1  UNL1        0.2921
     38 H           1.5800    0.4414    0.0000 H       1  UNL1        0.0660
     39 H           1.5439   -0.4347    0.0000 H       1  UNL1        0.0660
     40 H           2.4200   -0.4709    0.0000 H       1  UNL1        0.0660
@<TRIPOS>BOND
     1     1     9    1
     2     1    12    1
     3     2    11    1
     4     2    21    1
     5     3    15    1
     6     3    22    1
     7     4    13    1
     8     4    33    1
     9     5    16    1
    10     5    37    1
    11     6     7    1
    12     6     8    1
    13     6    23    1
    14     6    24    1
    15     7     9   ar
    16     7    11   ar
    17     8    10    1
    18     8    25    1
    19     8    26    1
    20     9    13   ar
    21    10    12   ar
    22    10    16   ar
    23    11    15   ar
    24    12    17   ar
    25    13    14   ar
    26    14    15   ar
    27    14    18    1
    28    16    19   ar
    29    17    20   ar
    30    17    27    1
    31    18    28    1
    32    18    29    1
    33    18    30    1
    34    19    20   ar
    35    19    31    1
    36    20    32    1
    37    21    34    1
    38    21    35    1
    39    21    36    1
    40    22    38    1
    41    22    39    1
    42    22    40    1
