@<TRIPOS>MOLECULE
IMPHY007005
 52 55 0 0 0
SMALL
GASTEIGER

@<TRIPOS>ATOM
      1 O           4.3009    3.1212    0.0000 O.3     1  UNL1       -0.4606
      2 O           4.4924   -0.7879    0.0000 O.3     1  UNL1       -0.3877
      3 O           2.7696    3.9839    0.0000 O.2     1  UNL1       -0.2502
      4 O           6.3685   -3.4839    0.0000 O.2     1  UNL1       -0.4708
      5 C           3.8000    0.6969    0.0000 C.3     1  UNL1        0.0042
      6 C           3.8000    1.6969    0.0000 C.3     1  UNL1        0.0196
      7 C           4.6660    0.1969    0.0000 C.3     1  UNL1        0.0748
      8 C           2.9061    2.2315    0.0000 C.3     1  UNL1        0.0717
      9 C           4.6660    2.1969    0.0000 C.3     1  UNL1        0.1078
     10 C           5.5321    0.6969    0.0000 C.3     1  UNL1       -0.0111
     11 C           2.9061    0.1622    0.0000 C.3     1  UNL1       -0.0446
     12 C           5.5321    1.6969    0.0000 C.3     1  UNL1       -0.0102
     13 C           2.0000    1.7177    0.0000 C.3     1  UNL1       -0.0371
     14 C           2.0000    0.6761    0.0000 C.3     1  UNL1       -0.0515
     15 C           3.4581   -0.2428    0.0000 C.3     1  UNL1       -0.0565
     16 C           5.1660   -0.6691    0.0000 C.3     1  UNL1       -0.0191
     17 C           3.3073    3.1408    0.0000 C.2     1  UNL1        0.3137
     18 C           2.4161    3.1033    0.0000 C.3     1  UNL1       -0.0490
     19 C           6.3981    0.1969    0.0000 C.3     1  UNL1       -0.0597
     20 C           4.6660   -1.5352    0.0000 C.3     1  UNL1       -0.0221
     21 C           5.1660   -2.4012    0.0000 C.ar    1  UNL1       -0.0096
     22 C           4.7593   -3.3147    0.0000 C.ar    1  UNL1       -0.0208
     23 C           6.1606   -2.5057    0.0000 C.ar    1  UNL1        0.0948
     24 C           5.5024   -3.9839    0.0000 C.ar    1  UNL1        0.0919
     25 H           3.0639    1.2719    0.0000 H       1  UNL1        0.0353
     26 H           5.3097    2.7520    0.0000 H       1  UNL1        0.0737
     27 H           5.5321    0.0769    0.0000 H       1  UNL1        0.0327
     28 H           2.5124   -0.3168    0.0000 H       1  UNL1        0.0272
     29 H           3.3107   -0.3076    0.0000 H       1  UNL1        0.0272
     30 H           6.1426    1.5892    0.0000 H       1  UNL1        0.0304
     31 H           5.7441    2.2795    0.0000 H       1  UNL1        0.0304
     32 H           1.7909    2.3014    0.0000 H       1  UNL1        0.0276
     33 H           1.3891    1.6116    0.0000 H       1  UNL1        0.0276
     34 H           1.3891    0.7822    0.0000 H       1  UNL1        0.0266
     35 H           1.7909    0.0924    0.0000 H       1  UNL1        0.0266
     36 H           2.8754   -0.0309    0.0000 H       1  UNL1        0.0236
     37 H           3.2461   -0.8255    0.0000 H       1  UNL1        0.0236
     38 H           4.0407   -0.4548    0.0000 H       1  UNL1        0.0236
     39 H           5.6410   -1.0677    0.0000 H       1  UNL1        0.0296
     40 H           5.6410   -0.2706    0.0000 H       1  UNL1        0.0296
     41 H           2.9566    3.4071    0.0000 H       1  UNL1        0.0240
     42 H           2.1123    3.6438    0.0000 H       1  UNL1        0.0240
     43 H           1.8756    2.7995    0.0000 H       1  UNL1        0.0240
     44 H           6.0881   -0.3401    0.0000 H       1  UNL1        0.0233
     45 H           6.9350   -0.1131    0.0000 H       1  UNL1        0.0233
     46 H           6.7081    0.7338    0.0000 H       1  UNL1        0.0233
     47 H           3.9098   -1.0000    0.0000 H       1  UNL1        0.2102
     48 H           4.1911   -1.1366    0.0000 H       1  UNL1        0.0315
     49 H           4.1911   -1.9337    0.0000 H       1  UNL1        0.0315
     50 H           4.1528   -3.4436    0.0000 H       1  UNL1        0.0652
     51 H           6.5754   -2.0450    0.0000 H       1  UNL1        0.1032
     52 H           5.4376   -4.6005    0.0000 H       1  UNL1        0.1029
@<TRIPOS>BOND
     1     1     9    1
     2     1    17    1
     3     7     2    1
     4     2    47    1
     5     3    17    2
     6     4    23   ar
     7     4    24   ar
     8     5     6    1
     9     5     7    1
    10     5    11    1
    11     5    15    1
    12     6     8    1
    13     6     9    1
    14     6    25    1
    15     7    10    1
    16     7    16    1
    17     8    13    1
    18     8    17    1
    19     8    18    1
    20     9    12    1
    21     9    26    1
    22    10    12    1
    23    10    19    1
    24    10    27    1
    25    11    14    1
    26    11    28    1
    27    11    29    1
    28    12    30    1
    29    12    31    1
    30    13    14    1
    31    13    32    1
    32    13    33    1
    33    14    34    1
    34    14    35    1
    35    15    36    1
    36    15    37    1
    37    15    38    1
    38    16    20    1
    39    16    39    1
    40    16    40    1
    41    18    41    1
    42    18    42    1
    43    18    43    1
    44    19    44    1
    45    19    45    1
    46    19    46    1
    47    20    21    1
    48    20    48    1
    49    20    49    1
    50    21    22   ar
    51    21    23   ar
    52    22    24   ar
    53    22    50    1
    54    23    51    1
    55    24    52    1
