@<TRIPOS>MOLECULE
IMPHY006263
 41 40 0 0 0
SMALL
GASTEIGER

@<TRIPOS>ATOM
      1 O           6.3301    0.0000    0.0000 O.3     1  UNL1       -0.3757
      2 O          10.6603    4.5000    0.0000 O.2     1  UNL1       -0.2781
      3 C           2.8660   -2.0000    0.0000 C.3     1  UNL1       -0.0531
      4 C           3.7320   -1.5000    0.0000 C.3     1  UNL1       -0.0528
      5 C           2.8660   -3.0000    0.0000 C.3     1  UNL1       -0.0533
      6 C           3.7320   -0.5000    0.0000 C.3     1  UNL1       -0.0496
      7 C           2.0000   -3.5000    0.0000 C.3     1  UNL1       -0.0559
      8 C           4.5981   -0.0000    0.0000 C.3     1  UNL1       -0.0347
      9 C           2.0000   -4.5000    0.0000 C.3     1  UNL1       -0.0653
     10 C           4.5981    1.0000    0.0000 C.2     1  UNL1       -0.0846
     11 C           5.4641    1.5000    0.0000 C.2     1  UNL1       -0.0478
     12 C           6.3301    1.0000    0.0000 C.3     1  UNL1        0.1351
     13 C           7.1962    1.5000    0.0000 C.1     1  UNL1       -0.0529
     14 C           8.0622    2.0000    0.0000 C.1     1  UNL1       -0.0115
     15 C           8.9282    2.5000    0.0000 C.1     1  UNL1       -0.0063
     16 C           9.7942    3.0000    0.0000 C.1     1  UNL1       -0.0102
     17 C          10.6603    3.5000    0.0000 C.2     1  UNL1        0.2292
     18 C          11.5263    3.0000    0.0000 C.2     1  UNL1       -0.0132
     19 C          12.3923    3.5000    0.0000 C.2     1  UNL1       -0.0944
     20 H           2.6540   -1.4174    0.0000 H       1  UNL1        0.0265
     21 H           2.2554   -2.1077    0.0000 H       1  UNL1        0.0265
     22 H           3.9441   -2.0826    0.0000 H       1  UNL1        0.0265
     23 H           4.3426   -1.3923    0.0000 H       1  UNL1        0.0265
     24 H           3.0781   -3.5826    0.0000 H       1  UNL1        0.0265
     25 H           3.4766   -2.8923    0.0000 H       1  UNL1        0.0265
     26 H           3.5200    0.0826    0.0000 H       1  UNL1        0.0268
     27 H           3.1215   -0.6077    0.0000 H       1  UNL1        0.0268
     28 H           1.7880   -2.9174    0.0000 H       1  UNL1        0.0263
     29 H           1.3894   -3.6077    0.0000 H       1  UNL1        0.0263
     30 H           4.8101   -0.5826    0.0000 H       1  UNL1        0.0307
     31 H           5.2087    0.1077    0.0000 H       1  UNL1        0.0307
     32 H           1.3800   -4.5000    0.0000 H       1  UNL1        0.0230
     33 H           2.0000   -5.1200    0.0000 H       1  UNL1        0.0230
     34 H           2.6200   -4.5000    0.0000 H       1  UNL1        0.0230
     35 H           4.0611    1.3100    0.0000 H       1  UNL1        0.0570
     36 H           5.4641    2.1200    0.0000 H       1  UNL1        0.0604
     37 H           7.0662    0.5750    0.0000 H       1  UNL1        0.0778
     38 H           6.8671   -0.3100    0.0000 H       1  UNL1        0.2114
     39 H          11.5263    2.3800    0.0000 H       1  UNL1        0.0657
     40 H          12.9292    3.1900    0.0000 H       1  UNL1        0.0536
     41 H          12.3923    4.1200    0.0000 H       1  UNL1        0.0536
@<TRIPOS>BOND
     1     1    12    1
     2     1    38    1
     3     2    17    2
     4     3     4    1
     5     3     5    1
     6     3    20    1
     7     3    21    1
     8     4     6    1
     9     4    22    1
    10     4    23    1
    11     5     7    1
    12     5    24    1
    13     5    25    1
    14     6     8    1
    15     6    26    1
    16     6    27    1
    17     7     9    1
    18     7    28    1
    19     7    29    1
    20     8    10    1
    21     8    30    1
    22     8    31    1
    23     9    32    1
    24     9    33    1
    25     9    34    1
    26    10    11    2
    27    10    35    1
    28    11    12    1
    29    11    36    1
    30    12    13    1
    31    12    37    1
    32    13    14    3
    33    14    15    1
    34    15    16    3
    35    16    17    1
    36    17    18    1
    37    18    19    2
    38    18    39    1
    39    19    40    1
    40    19    41    1
