@<TRIPOS>MOLECULE
IMPHY014283
 17 18 0 0 0
SMALL
GASTEIGER

@<TRIPOS>ATOM
      1 O           4.6660    1.2927    0.0000 O.3     1  UNL1       -0.4604
      2 N           4.6660   -0.7073    0.0000 N.pl3   1  UNL1       -0.3152
      3 C           3.8000   -0.2073    0.0000 C.ar    1  UNL1        0.0738
      4 C           3.8000    0.7927    0.0000 C.ar    1  UNL1        0.1487
      5 C           2.9061   -0.7420    0.0000 C.ar    1  UNL1       -0.0370
      6 C           2.9061    1.3273    0.0000 C.ar    1  UNL1       -0.0175
      7 C           2.0000   -0.2281    0.0000 C.ar    1  UNL1       -0.0598
      8 C           2.0000    0.8135    0.0000 C.ar    1  UNL1       -0.0582
      9 C           5.5321   -0.2073    0.0000 C.2     1  UNL1        0.0291
     10 C           5.5321    0.7927    0.0000 C.2     1  UNL1        0.1062
     11 H           2.9132   -1.3620    0.0000 H       1  UNL1        0.0637
     12 H           4.6660   -1.3273    0.0000 H       1  UNL1        0.1518
     13 H           2.9132    1.9473    0.0000 H       1  UNL1        0.0655
     14 H           1.4643   -0.5402    0.0000 H       1  UNL1        0.0618
     15 H           1.4643    1.1256    0.0000 H       1  UNL1        0.0619
     16 H           6.0690   -0.5173    0.0000 H       1  UNL1        0.0812
     17 H           6.0690    1.1027    0.0000 H       1  UNL1        0.1042
@<TRIPOS>BOND
     1     1     4    1
     2     1    10    1
     3     2     3    1
     4     2     9    1
     5     2    12    1
     6     3     4   ar
     7     3     5   ar
     8     4     6   ar
     9     5     7   ar
    10     5    11    1
    11     6     8   ar
    12     6    13    1
    13     7     8   ar
    14     7    14    1
    15     8    15    1
    16     9    10    2
    17     9    16    1
    18    10    17    1
