@<TRIPOS>MOLECULE
IMPHY001607
 45 49 0 0 0
SMALL
GASTEIGER

@<TRIPOS>ATOM
      1 O           5.1660   -1.4890    0.0000 O.3     1  UNL1       -0.4560
      2 O           4.3009    2.9742    0.0000 O.3     1  UNL1       -0.4510
      3 O           6.3981    2.0498    0.0000 O.3     1  UNL1       -0.3875
      4 O           6.4022   -0.9125    0.0000 O.2     1  UNL1       -0.2502
      5 O           2.7696    3.8368    0.0000 O.2     1  UNL1       -0.2453
      6 O           3.0782   -3.8368    0.0000 O.2     1  UNL1       -0.4706
      7 C           4.6660    0.0499    0.0000 C.3     1  UNL1        0.0830
      8 C           3.8000    0.5499    0.0000 C.3     1  UNL1        0.0006
      9 C           5.5321    0.5499    0.0000 C.3     1  UNL1        0.0024
     10 C           3.8000    1.5498    0.0000 C.2     1  UNL1       -0.0130
     11 C           5.5321    1.5498    0.0000 C.3     1  UNL1        0.0996
     12 C           4.6660    2.0498    0.0000 C.3     1  UNL1        0.1515
     13 C           3.8570   -0.5379    0.0000 C.3     1  UNL1        0.0054
     14 C           2.9061    0.0152    0.0000 C.3     1  UNL1       -0.0450
     15 C           5.4751   -0.5379    0.0000 C.2     1  UNL1        0.3149
     16 C           2.9061    2.0845    0.0000 C.2     1  UNL1        0.0397
     17 C           4.1660   -1.4890    0.0000 C.3     1  UNL1        0.1320
     18 C           2.0000    0.5290    0.0000 C.3     1  UNL1       -0.0483
     19 C           2.0000    1.5707    0.0000 C.3     1  UNL1       -0.0208
     20 C           6.5169    0.7235    0.0000 C.3     1  UNL1       -0.0589
     21 C           3.3073    2.9937    0.0000 C.2     1  UNL1        0.3359
     22 C           3.5782   -2.2980    0.0000 C.ar    1  UNL1        0.0304
     23 C           2.5782   -2.2980    0.0000 C.ar    1  UNL1       -0.0172
     24 C           3.8873   -3.2491    0.0000 C.ar    1  UNL1        0.0983
     25 C           2.2692   -3.2491    0.0000 C.ar    1  UNL1        0.0921
     26 H           3.8066   -0.3001    0.0000 H       1  UNL1        0.0358
     27 H           5.7441   -0.0328    0.0000 H       1  UNL1        0.0335
     28 H           5.5321    2.1698    0.0000 H       1  UNL1        0.0637
     29 H           5.3097    2.6050    0.0000 H       1  UNL1        0.0809
     30 H           3.5470   -0.0010    0.0000 H       1  UNL1        0.0315
     31 H           3.2906   -0.7901    0.0000 H       1  UNL1        0.0315
     32 H           2.5124   -0.4638    0.0000 H       1  UNL1        0.0271
     33 H           3.3107   -0.4546    0.0000 H       1  UNL1        0.0271
     34 H           3.5537   -1.3920    0.0000 H       1  UNL1        0.0786
     35 H           1.3891    0.6351    0.0000 H       1  UNL1        0.0269
     36 H           1.7909   -0.0547    0.0000 H       1  UNL1        0.0269
     37 H           1.7909    2.1544    0.0000 H       1  UNL1        0.0315
     38 H           1.3891    1.4646    0.0000 H       1  UNL1        0.0315
     39 H           6.6245    0.1129    0.0000 H       1  UNL1        0.0234
     40 H           7.1274    0.8312    0.0000 H       1  UNL1        0.0234
     41 H           6.4092    1.3341    0.0000 H       1  UNL1        0.0234
     42 H           6.3981    2.6698    0.0000 H       1  UNL1        0.2100
     43 H           2.2138   -1.7964    0.0000 H       1  UNL1        0.0653
     44 H           4.4769   -3.4406    0.0000 H       1  UNL1        0.1033
     45 H           1.6796   -3.4406    0.0000 H       1  UNL1        0.1029
@<TRIPOS>BOND
     1     1    15    1
     2     1    17    1
     3     2    12    1
     4     2    21    1
     5    11     3    1
     6     3    42    1
     7     4    15    2
     8     5    21    2
     9     6    24   ar
    10     6    25   ar
    11     7     8    1
    12     7     9    1
    13     7    13    1
    14     7    15    1
    15     8    10    1
    16     8    14    1
    17     8    26    1
    18     9    11    1
    19     9    20    1
    20     9    27    1
    21    10    12    1
    22    10    16    2
    23    11    12    1
    24    11    28    1
    25    12    29    1
    26    13    17    1
    27    13    30    1
    28    13    31    1
    29    14    18    1
    30    14    32    1
    31    14    33    1
    32    16    19    1
    33    16    21    1
    34    17    22    1
    35    17    34    1
    36    18    19    1
    37    18    35    1
    38    18    36    1
    39    19    37    1
    40    19    38    1
    41    20    39    1
    42    20    40    1
    43    20    41    1
    44    22    23   ar
    45    22    24   ar
    46    23    25   ar
    47    23    43    1
    48    24    44    1
    49    25    45    1
