@<TRIPOS>MOLECULE
IMPHY005085
 65 64 0 0 0
SMALL
GASTEIGER

@<TRIPOS>ATOM
      1 O           2.5369    0.7500    0.0000 O.3     1  UNL1       -0.4806
      2 O           3.4030   -0.7500    0.0000 O.2     1  UNL1       -0.2510
      3 C          12.0632    0.2500    0.0000 C.3     1  UNL1       -0.0531
      4 C          12.9292    0.7500    0.0000 C.3     1  UNL1       -0.0531
      5 C          11.1972    0.7500    0.0000 C.3     1  UNL1       -0.0531
      6 C          13.7953    0.2500    0.0000 C.3     1  UNL1       -0.0531
      7 C          10.3312    0.2500    0.0000 C.3     1  UNL1       -0.0531
      8 C          14.6613    0.7500    0.0000 C.3     1  UNL1       -0.0531
      9 C           9.4651    0.7500    0.0000 C.3     1  UNL1       -0.0531
     10 C          15.5273    0.2500    0.0000 C.3     1  UNL1       -0.0531
     11 C           8.5991    0.2500    0.0000 C.3     1  UNL1       -0.0531
     12 C          16.3933    0.7500    0.0000 C.3     1  UNL1       -0.0531
     13 C           7.7331    0.7500    0.0000 C.3     1  UNL1       -0.0531
     14 C          17.2594    0.2500    0.0000 C.3     1  UNL1       -0.0531
     15 C           6.8671    0.2500    0.0000 C.3     1  UNL1       -0.0530
     16 C          18.1254    0.7500    0.0000 C.3     1  UNL1       -0.0531
     17 C           6.0010    0.7500    0.0000 C.3     1  UNL1       -0.0526
     18 C          18.9914    0.2500    0.0000 C.3     1  UNL1       -0.0533
     19 C           5.1350    0.2500    0.0000 C.3     1  UNL1       -0.0430
     20 C          19.8574    0.7500    0.0000 C.3     1  UNL1       -0.0559
     21 C           4.2690    0.7500    0.0000 C.3     1  UNL1        0.0448
     22 C          20.7235    0.2500    0.0000 C.3     1  UNL1       -0.0653
     23 C           3.4030    0.2500    0.0000 C.2     1  UNL1        0.3047
     24 H          11.6647   -0.2249    0.0000 H       1  UNL1        0.0265
     25 H          12.4617   -0.2249    0.0000 H       1  UNL1        0.0265
     26 H          13.3278    1.2250    0.0000 H       1  UNL1        0.0265
     27 H          12.5307    1.2250    0.0000 H       1  UNL1        0.0265
     28 H          11.5957    1.2250    0.0000 H       1  UNL1        0.0265
     29 H          10.7987    1.2250    0.0000 H       1  UNL1        0.0265
     30 H          13.3967   -0.2249    0.0000 H       1  UNL1        0.0265
     31 H          14.1938   -0.2249    0.0000 H       1  UNL1        0.0265
     32 H           9.9326   -0.2249    0.0000 H       1  UNL1        0.0265
     33 H          10.7297   -0.2249    0.0000 H       1  UNL1        0.0265
     34 H          15.0598    1.2250    0.0000 H       1  UNL1        0.0265
     35 H          14.2628    1.2250    0.0000 H       1  UNL1        0.0265
     36 H           9.8637    1.2250    0.0000 H       1  UNL1        0.0265
     37 H           9.0666    1.2250    0.0000 H       1  UNL1        0.0265
     38 H          15.1288   -0.2249    0.0000 H       1  UNL1        0.0265
     39 H          15.9258   -0.2249    0.0000 H       1  UNL1        0.0265
     40 H           8.2006   -0.2249    0.0000 H       1  UNL1        0.0265
     41 H           8.9976   -0.2249    0.0000 H       1  UNL1        0.0265
     42 H          16.7919    1.2250    0.0000 H       1  UNL1        0.0265
     43 H          15.9948    1.2250    0.0000 H       1  UNL1        0.0265
     44 H           8.1316    1.2250    0.0000 H       1  UNL1        0.0265
     45 H           7.3346    1.2250    0.0000 H       1  UNL1        0.0265
     46 H          16.8608   -0.2249    0.0000 H       1  UNL1        0.0265
     47 H          17.6579   -0.2249    0.0000 H       1  UNL1        0.0265
     48 H           6.4685   -0.2249    0.0000 H       1  UNL1        0.0265
     49 H           7.2656   -0.2249    0.0000 H       1  UNL1        0.0265
     50 H          18.5239    1.2250    0.0000 H       1  UNL1        0.0265
     51 H          17.7269    1.2250    0.0000 H       1  UNL1        0.0265
     52 H           6.3996    1.2250    0.0000 H       1  UNL1        0.0265
     53 H           5.6025    1.2250    0.0000 H       1  UNL1        0.0265
     54 H          18.5929   -0.2249    0.0000 H       1  UNL1        0.0265
     55 H          19.3899   -0.2249    0.0000 H       1  UNL1        0.0265
     56 H           4.7365   -0.2249    0.0000 H       1  UNL1        0.0270
     57 H           5.5335   -0.2249    0.0000 H       1  UNL1        0.0270
     58 H          20.2560    1.2250    0.0000 H       1  UNL1        0.0263
     59 H          19.4589    1.2250    0.0000 H       1  UNL1        0.0263
     60 H           4.6675    1.2250    0.0000 H       1  UNL1        0.0377
     61 H           3.8705    1.2250    0.0000 H       1  UNL1        0.0377
     62 H          20.4135   -0.2869    0.0000 H       1  UNL1        0.0230
     63 H          21.2604   -0.0600    0.0000 H       1  UNL1        0.0230
     64 H          21.0335    0.7869    0.0000 H       1  UNL1        0.0230
     65 H           2.0000    0.4400    0.0000 H       1  UNL1        0.2951
@<TRIPOS>BOND
     1     1    23    1
     2     1    65    1
     3     2    23    2
     4     3     4    1
     5     3     5    1
     6     3    24    1
     7     3    25    1
     8     4     6    1
     9     4    26    1
    10     4    27    1
    11     5     7    1
    12     5    28    1
    13     5    29    1
    14     6     8    1
    15     6    30    1
    16     6    31    1
    17     7     9    1
    18     7    32    1
    19     7    33    1
    20     8    10    1
    21     8    34    1
    22     8    35    1
    23     9    11    1
    24     9    36    1
    25     9    37    1
    26    10    12    1
    27    10    38    1
    28    10    39    1
    29    11    13    1
    30    11    40    1
    31    11    41    1
    32    12    14    1
    33    12    42    1
    34    12    43    1
    35    13    15    1
    36    13    44    1
    37    13    45    1
    38    14    16    1
    39    14    46    1
    40    14    47    1
    41    15    17    1
    42    15    48    1
    43    15    49    1
    44    16    18    1
    45    16    50    1
    46    16    51    1
    47    17    19    1
    48    17    52    1
    49    17    53    1
    50    18    20    1
    51    18    54    1
    52    18    55    1
    53    19    21    1
    54    19    56    1
    55    19    57    1
    56    20    22    1
    57    20    58    1
    58    20    59    1
    59    21    23    1
    60    21    60    1
    61    21    61    1
    62    22    62    1
    63    22    63    1
    64    22    64    1
