@<TRIPOS>MOLECULE
IMPHY006246
 27 26 0 0 0
SMALL
GASTEIGER

@<TRIPOS>ATOM
      1 O           4.2690   -2.4050    0.0000 O.3     1  UNL1       -0.3855
      2 O           2.5369   -1.4050    0.0000 O.3     1  UNL1       -0.3921
      3 C           4.2690   -1.4050    0.0000 C.3     1  UNL1        0.0972
      4 C           3.4030   -0.9050    0.0000 C.3     1  UNL1        0.0737
      5 C           5.1350   -0.9050    0.0000 C.2     1  UNL1       -0.0455
      6 C           6.0010   -1.4050    0.0000 C.2     1  UNL1       -0.0121
      7 C           6.8671   -0.9050    0.0000 C.1     1  UNL1       -0.0605
      8 C          13.7953    2.0950    0.0000 C.3     1  UNL1       -0.0459
      9 C          12.9292    1.5950    0.0000 C.2     1  UNL1       -0.0789
     10 C          12.0632    2.0950    0.0000 C.2     1  UNL1       -0.0148
     11 C           7.7331   -0.4050    0.0000 C.1     1  UNL1       -0.0092
     12 C          11.1972    1.5950    0.0000 C.1     1  UNL1       -0.0606
     13 C           8.5991    0.0950    0.0000 C.1     1  UNL1       -0.0006
     14 C          10.3312    1.0950    0.0000 C.1     1  UNL1       -0.0092
     15 C           9.4651    0.5950    0.0000 C.1     1  UNL1       -0.0006
     16 H           4.8059   -1.7150    0.0000 H       1  UNL1        0.0661
     17 H           3.8015   -0.4301    0.0000 H       1  UNL1        0.0586
     18 H           3.0044   -0.4301    0.0000 H       1  UNL1        0.0586
     19 H           5.1350   -0.2850    0.0000 H       1  UNL1        0.0604
     20 H           3.7320   -2.7150    0.0000 H       1  UNL1        0.2103
     21 H           6.0010   -2.0250    0.0000 H       1  UNL1        0.0710
     22 H           2.0000   -1.0950    0.0000 H       1  UNL1        0.2095
     23 H          14.1053    1.5581    0.0000 H       1  UNL1        0.0272
     24 H          14.3322    2.4050    0.0000 H       1  UNL1        0.0272
     25 H          13.4853    2.6319    0.0000 H       1  UNL1        0.0272
     26 H          12.9292    0.9750    0.0000 H       1  UNL1        0.0575
     27 H          12.0632    2.7150    0.0000 H       1  UNL1        0.0709
@<TRIPOS>BOND
     1     3     1    1
     2     1    20    1
     3     2     4    1
     4     2    22    1
     5     3     4    1
     6     3     5    1
     7     3    16    1
     8     4    17    1
     9     4    18    1
    10     5     6    2
    11     5    19    1
    12     6     7    1
    13     6    21    1
    14     7    11    3
    15     8     9    1
    16     8    23    1
    17     8    24    1
    18     8    25    1
    19     9    10    2
    20     9    26    1
    21    10    12    1
    22    10    27    1
    23    11    13    1
    24    12    14    3
    25    13    15    3
    26    14    15    1
