@<TRIPOS>MOLECULE
IMPHY013456
 68 69 0 0 0
SMALL
GASTEIGER

@<TRIPOS>ATOM
      1 O           9.7942    2.7500    0.0000 O.3     1  UNL1       -0.4257
      2 O           3.7320   -2.7500    0.0000 O.3     1  UNL1       -0.4257
      3 O           4.5981    1.7500    0.0000 O.3     1  UNL1       -0.4670
      4 O           8.9282   -1.7500    0.0000 O.3     1  UNL1       -0.4670
      5 O           5.4641    0.2500    0.0000 O.2     1  UNL1       -0.2494
      6 O           8.0622   -0.2500    0.0000 O.2     1  UNL1       -0.2494
      7 O          10.6603    4.2500    0.0000 O.2     1  UNL1       -0.2507
      8 O           2.8660   -4.2500    0.0000 O.2     1  UNL1       -0.2507
      9 N           7.1962    1.2500    0.0000 N.3     1  UNL1       -0.2869
     10 N           6.3301   -1.2500    0.0000 N.3     1  UNL1       -0.2869
     11 C           7.1962    0.2500    0.0000 C.3     1  UNL1        0.0126
     12 C           6.3301   -0.2500    0.0000 C.3     1  UNL1        0.0126
     13 C           8.0622    1.7500    0.0000 C.3     1  UNL1        0.0281
     14 C           5.4641   -1.7500    0.0000 C.3     1  UNL1        0.0281
     15 C           6.3301    1.7500    0.0000 C.3     1  UNL1        0.0972
     16 C           7.1962   -1.7500    0.0000 C.3     1  UNL1        0.0972
     17 C           8.0622    2.7500    0.0000 C.ar    1  UNL1        0.0090
     18 C           5.4641   -2.7500    0.0000 C.ar    1  UNL1        0.0090
     19 C           8.9282    3.2500    0.0000 C.ar    1  UNL1        0.1360
     20 C           4.5981   -3.2500    0.0000 C.ar    1  UNL1        0.1360
     21 C           5.4641    1.2500    0.0000 C.2     1  UNL1        0.3211
     22 C           8.0622   -1.2500    0.0000 C.2     1  UNL1        0.3211
     23 C           7.1962    3.2500    0.0000 C.ar    1  UNL1       -0.0538
     24 C           6.3301   -3.2500    0.0000 C.ar    1  UNL1       -0.0538
     25 C           8.9282    4.2500    0.0000 C.ar    1  UNL1       -0.0189
     26 C           4.5981   -4.2500    0.0000 C.ar    1  UNL1       -0.0189
     27 C           7.1962    4.2500    0.0000 C.ar    1  UNL1       -0.0612
     28 C           6.3301   -4.2500    0.0000 C.ar    1  UNL1       -0.0612
     29 C           8.0622    4.7500    0.0000 C.ar    1  UNL1       -0.0583
     30 C           5.4641   -4.7500    0.0000 C.ar    1  UNL1       -0.0583
     31 C           3.7320    1.2500    0.0000 C.3     1  UNL1        0.0817
     32 C           9.7942   -1.2500    0.0000 C.3     1  UNL1        0.0817
     33 C          10.6603    3.2500    0.0000 C.2     1  UNL1        0.3092
     34 C           2.8660   -3.2500    0.0000 C.2     1  UNL1        0.3092
     35 C          11.5263    2.7500    0.0000 C.3     1  UNL1        0.0336
     36 C           2.0000   -2.7500    0.0000 C.3     1  UNL1        0.0336
     37 H           7.4082   -0.3326    0.0000 H       1  UNL1        0.0439
     38 H           7.8067    0.3577    0.0000 H       1  UNL1        0.0439
     39 H           6.1181    0.3326    0.0000 H       1  UNL1        0.0439
     40 H           5.7196   -0.3577    0.0000 H       1  UNL1        0.0439
     41 H           8.2742    1.1674    0.0000 H       1  UNL1        0.0477
     42 H           8.6728    1.8577    0.0000 H       1  UNL1        0.0477
     43 H           5.2520   -1.1674    0.0000 H       1  UNL1        0.0477
     44 H           4.8535   -1.8577    0.0000 H       1  UNL1        0.0477
     45 H           6.7287    2.2250    0.0000 H       1  UNL1        0.0542
     46 H           5.9316    2.2250    0.0000 H       1  UNL1        0.0542
     47 H           6.7976   -2.2250    0.0000 H       1  UNL1        0.0542
     48 H           7.5947   -2.2250    0.0000 H       1  UNL1        0.0542
     49 H           6.6592    2.9400    0.0000 H       1  UNL1        0.0622
     50 H           6.8671   -2.9400    0.0000 H       1  UNL1        0.0622
     51 H           9.4651    4.5600    0.0000 H       1  UNL1        0.0654
     52 H           4.0611   -4.5600    0.0000 H       1  UNL1        0.0654
     53 H           6.6592    4.5600    0.0000 H       1  UNL1        0.0618
     54 H           6.8671   -4.5600    0.0000 H       1  UNL1        0.0618
     55 H           8.0622    5.3700    0.0000 H       1  UNL1        0.0619
     56 H           5.4641   -5.3700    0.0000 H       1  UNL1        0.0619
     57 H           3.4220    1.7869    0.0000 H       1  UNL1        0.0661
     58 H           3.1951    0.9400    0.0000 H       1  UNL1        0.0661
     59 H           4.0420    0.7131    0.0000 H       1  UNL1        0.0661
     60 H          10.1042   -1.7869    0.0000 H       1  UNL1        0.0661
     61 H          10.3312   -0.9400    0.0000 H       1  UNL1        0.0661
     62 H           9.4842   -0.7131    0.0000 H       1  UNL1        0.0661
     63 H          11.2163    2.2131    0.0000 H       1  UNL1        0.0342
     64 H          12.0632    2.4400    0.0000 H       1  UNL1        0.0342
     65 H          11.8363    3.2869    0.0000 H       1  UNL1        0.0342
     66 H           2.3100   -2.2131    0.0000 H       1  UNL1        0.0342
     67 H           1.4631   -2.4400    0.0000 H       1  UNL1        0.0342
     68 H           1.6900   -3.2869    0.0000 H       1  UNL1        0.0342
@<TRIPOS>BOND
     1     1    19    1
     2     1    33    1
     3     2    20    1
     4     2    34    1
     5     3    21    1
     6     3    31    1
     7     4    22    1
     8     4    32    1
     9     5    21    2
    10     6    22    2
    11     7    33    2
    12     8    34    2
    13     9    11    1
    14     9    13    1
    15     9    15    1
    16    10    12    1
    17    10    14    1
    18    10    16    1
    19    11    12    1
    20    11    37    1
    21    11    38    1
    22    12    39    1
    23    12    40    1
    24    13    17    1
    25    13    41    1
    26    13    42    1
    27    14    18    1
    28    14    43    1
    29    14    44    1
    30    15    21    1
    31    15    45    1
    32    15    46    1
    33    16    22    1
    34    16    47    1
    35    16    48    1
    36    17    19   ar
    37    17    23   ar
    38    18    20   ar
    39    18    24   ar
    40    19    25   ar
    41    20    26   ar
    42    23    27   ar
    43    23    49    1
    44    24    28   ar
    45    24    50    1
    46    25    29   ar
    47    25    51    1
    48    26    30   ar
    49    26    52    1
    50    27    29   ar
    51    27    53    1
    52    28    30   ar
    53    28    54    1
    54    29    55    1
    55    30    56    1
    56    31    57    1
    57    31    58    1
    58    31    59    1
    59    32    60    1
    60    32    61    1
    61    32    62    1
    62    33    35    1
    63    34    36    1
    64    35    63    1
    65    35    64    1
    66    35    65    1
    67    36    66    1
    68    36    67    1
    69    36    68    1
