@<TRIPOS>MOLECULE
IMPHY010073
 45 47 0 0 0
SMALL
GASTEIGER

@<TRIPOS>ATOM
      1 O           6.3981   -0.1754    0.0000 O.2     1  UNL1       -0.4507
      2 O           8.1301    1.8246    0.0000 O.3     1  UNL1       -0.4883
      3 O           2.8680    1.8488    0.0000 O.3     1  UNL1       -0.4885
      4 O           4.6497    2.8592    0.0000 O.3     1  UNL1       -0.5027
      5 O           6.3981    2.8246    0.0000 O.2     1  UNL1       -0.2830
      6 O           8.9962   -2.6754    0.0000 O.3     1  UNL1       -0.4914
      7 O           2.8680   -0.1995    0.0000 O.3     1  UNL1       -0.5031
      8 O          10.7282   -1.6754    0.0000 O.3     1  UNL1       -0.4915
      9 C           5.5320    1.3246    0.0000 C.ar    1  UNL1        0.1128
     10 C           7.2641    0.3246    0.0000 C.ar    1  UNL1        0.1809
     11 C           5.5320    0.3246    0.0000 C.ar    1  UNL1        0.1468
     12 C           7.2641    1.3246    0.0000 C.ar    1  UNL1        0.2107
     13 C           8.1301   -0.1754    0.0000 C.ar    1  UNL1        0.0247
     14 C           6.3981    1.8246    0.0000 C.ar    1  UNL1        0.2382
     15 C           4.6381    1.8593    0.0000 C.ar    1  UNL1        0.1769
     16 C           4.6381   -0.2101    0.0000 C.ar    1  UNL1        0.0268
     17 C           3.7320    1.3454    0.0000 C.ar    1  UNL1        0.2040
     18 C           3.7320    0.3038    0.0000 C.ar    1  UNL1        0.1657
     19 C           8.1301   -1.1754    0.0000 C.ar    1  UNL1       -0.0055
     20 C           8.9962    0.3246    0.0000 C.ar    1  UNL1       -0.0473
     21 C           8.9962   -1.6754    0.0000 C.ar    1  UNL1        0.1622
     22 C           9.8622   -1.1754    0.0000 C.ar    1  UNL1        0.1615
     23 C           9.8622   -0.1754    0.0000 C.ar    1  UNL1       -0.0156
     24 C           8.1301    2.8246    0.0000 C.3     1  UNL1        0.0791
     25 C           2.0000    1.3521    0.0000 C.3     1  UNL1        0.0791
     26 C           9.8622   -3.1754    0.0000 C.3     1  UNL1        0.0790
     27 C          11.5942   -1.1754    0.0000 C.3     1  UNL1        0.0790
     28 H           4.6453   -0.8300    0.0000 H       1  UNL1        0.0692
     29 H           7.5932   -1.4854    0.0000 H       1  UNL1        0.0662
     30 H           8.9962    0.9446    0.0000 H       1  UNL1        0.0626
     31 H          10.3991    0.1346    0.0000 H       1  UNL1        0.0655
     32 H           4.1164    3.1754    0.0000 H       1  UNL1        0.2923
     33 H           8.7501    2.8246    0.0000 H       1  UNL1        0.0660
     34 H           8.1301    3.4446    0.0000 H       1  UNL1        0.0660
     35 H           7.5101    2.8246    0.0000 H       1  UNL1        0.0660
     36 H           2.8703   -0.8195    0.0000 H       1  UNL1        0.2923
     37 H           1.6921    1.8902    0.0000 H       1  UNL1        0.0660
     38 H           1.4619    1.0442    0.0000 H       1  UNL1        0.0660
     39 H           2.3079    0.8140    0.0000 H       1  UNL1        0.0660
     40 H           9.5522   -3.7123    0.0000 H       1  UNL1        0.0660
     41 H          10.3991   -3.4854    0.0000 H       1  UNL1        0.0660
     42 H          10.1722   -2.6385    0.0000 H       1  UNL1        0.0660
     43 H          11.9042   -1.7123    0.0000 H       1  UNL1        0.0660
     44 H          12.1312   -0.8654    0.0000 H       1  UNL1        0.0660
     45 H          11.2842   -0.6385    0.0000 H       1  UNL1        0.0660
@<TRIPOS>BOND
     1     1    10   ar
     2     1    11   ar
     3     2    12    1
     4     2    24    1
     5     3    17    1
     6     3    25    1
     7     4    15    1
     8     4    32    1
     9     5    14    2
    10     6    21    1
    11     6    26    1
    12     7    18    1
    13     7    36    1
    14     8    22    1
    15     8    27    1
    16     9    11   ar
    17     9    14   ar
    18     9    15   ar
    19    10    12   ar
    20    10    13    1
    21    11    16   ar
    22    12    14   ar
    23    13    19   ar
    24    13    20   ar
    25    15    17   ar
    26    16    18   ar
    27    16    28    1
    28    17    18   ar
    29    19    21   ar
    30    19    29    1
    31    20    23   ar
    32    20    30    1
    33    21    22   ar
    34    22    23   ar
    35    23    31    1
    36    24    33    1
    37    24    34    1
    38    24    35    1
    39    25    37    1
    40    25    38    1
    41    25    39    1
    42    26    40    1
    43    26    41    1
    44    26    42    1
    45    27    43    1
    46    27    44    1
    47    27    45    1
