@<TRIPOS>MOLECULE
IMPHY002742
 49 53 0 0 0
SMALL
GASTEIGER

@<TRIPOS>ATOM
      1 O           4.1704   -1.2240    0.0000 O.2     1  UNL1       -0.4493
      2 O           6.8987    1.9216    0.0000 O.3     1  UNL1       -0.4603
      3 O           2.7858   -0.7797    0.0000 O.3     1  UNL1       -0.3488
      4 O           7.3673   -0.6887    0.0000 O.3     1  UNL1       -0.3940
      5 O           6.0526   -2.6446    0.0000 O.2     1  UNL1       -0.2885
      6 O           2.0000   -0.5726    0.0000 O.2     1  UNL1       -0.2857
      7 O           8.6202    1.9543    0.0000 O.2     1  UNL1       -0.2508
      8 C           6.0405    0.4246    0.0000 C.3     1  UNL1        0.0602
      9 C           4.3084    0.4246    0.0000 C.3     1  UNL1        0.0730
     10 C           5.1745   -0.0754    0.0000 C.2     1  UNL1        0.0010
     11 C           4.3084    1.4246    0.0000 C.3     1  UNL1       -0.0007
     12 C           6.0405    1.4246    0.0000 C.3     1  UNL1        0.1154
     13 C           6.9505   -0.0822    0.0000 C.3     1  UNL1       -0.0063
     14 C           5.1745    1.9246    0.0000 C.3     1  UNL1       -0.0072
     15 C           3.6905   -0.3537    0.0000 C.3     1  UNL1        0.2834
     16 C           6.9585   -1.1238    0.0000 C.3     1  UNL1        0.0267
     17 C           5.1584   -1.1169    0.0000 C.2     1  UNL1        0.1679
     18 C           6.3826   -0.5150    0.0000 C.3     1  UNL1        0.0573
     19 C           4.3084   -0.5754    0.0000 C.3     1  UNL1       -0.0486
     20 C           7.7898    0.4460    0.0000 C.3     1  UNL1        0.0494
     21 C           3.3570    1.6736    0.0000 C.2     1  UNL1       -0.0649
     22 C           6.0564   -1.6446    0.0000 C.2     1  UNL1        0.2005
     23 C           2.7897    0.0409    0.0000 C.2     1  UNL1        0.2278
     24 C           7.7642    1.4374    0.0000 C.2     1  UNL1        0.3077
     25 C           2.6301    1.0113    0.0000 C.2     1  UNL1       -0.0133
     26 C           7.8265   -1.6205    0.0000 C.3     1  UNL1       -0.0550
     27 C           3.1179    2.6446    0.0000 C.3     1  UNL1       -0.0431
     28 H           4.1950    2.2670    0.0000 H       1  UNL1        0.0357
     29 H           6.0400    2.2746    0.0000 H       1  UNL1        0.0744
     30 H           7.6962   -0.4902    0.0000 H       1  UNL1        0.0323
     31 H           5.5730    2.3996    0.0000 H       1  UNL1        0.0307
     32 H           4.7760    2.3996    0.0000 H       1  UNL1        0.0307
     33 H           6.9597   -1.7438    0.0000 H       1  UNL1        0.0382
     34 H           5.7720   -0.6227    0.0000 H       1  UNL1        0.0567
     35 H           6.3826   -1.1350    0.0000 H       1  UNL1        0.0567
     36 H           3.6884   -0.5754    0.0000 H       1  UNL1        0.0241
     37 H           4.3084   -1.1954    0.0000 H       1  UNL1        0.0241
     38 H           4.9284   -0.5754    0.0000 H       1  UNL1        0.0241
     39 H           8.0216   -0.1290    0.0000 H       1  UNL1        0.0381
     40 H           8.3969    0.5719    0.0000 H       1  UNL1        0.0381
     41 H           2.0444    1.2148    0.0000 H       1  UNL1        0.0654
     42 H           7.5186   -2.1586    0.0000 H       1  UNL1        0.0237
     43 H           8.3646   -1.9284    0.0000 H       1  UNL1        0.0237
     44 H           8.1344   -1.0824    0.0000 H       1  UNL1        0.0237
     45 H           2.7340   -1.3975    0.0000 H       1  UNL1        0.2143
     46 H           3.7199    2.7929    0.0000 H       1  UNL1        0.0275
     47 H           2.9696    3.2466    0.0000 H       1  UNL1        0.0275
     48 H           2.5159    2.4964    0.0000 H       1  UNL1        0.0275
     49 H           7.7659   -0.2138    0.0000 H       1  UNL1        0.2094
@<TRIPOS>BOND
     1     1    15    1
     2     1    17    1
     3     2    12    1
     4     2    24    1
     5    15     3    1
     6     3    45    1
     7     4    18    1
     8     4    49    1
     9     5    22    2
    10     6    23    2
    11     7    24    2
    12     8    10    1
    13     8    12    1
    14     8    13    1
    15     8    18    1
    16     9    10    1
    17     9    11    1
    18     9    15    1
    19     9    19    1
    20    10    17    2
    21    11    14    1
    22    11    21    1
    23    11    28    1
    24    12    14    1
    25    12    29    1
    26    13    16    1
    27    13    20    1
    28    13    30    1
    29    14    31    1
    30    14    32    1
    31    15    23    1
    32    16    22    1
    33    16    26    1
    34    16    33    1
    35    17    22    1
    36    18    34    1
    37    18    35    1
    38    19    36    1
    39    19    37    1
    40    19    38    1
    41    20    24    1
    42    20    39    1
    43    20    40    1
    44    21    25    2
    45    21    27    1
    46    23    25    1
    47    25    41    1
    48    26    42    1
    49    26    43    1
    50    26    44    1
    51    27    46    1
    52    27    47    1
    53    27    48    1
