@<TRIPOS>MOLECULE
IMPHY002158
 50 54 0 0 0
SMALL
GASTEIGER

@<TRIPOS>ATOM
      1 O           5.4390    0.6033    0.0000 O.3     1  UNL1       -0.4590
      2 O           8.9116    2.0448    0.0000 O.3     1  UNL1       -0.3757
      3 O           4.5112   -2.5349    0.0000 O.3     1  UNL1       -0.4910
      4 O           2.6079    0.3380    0.0000 O.3     1  UNL1       -0.4525
      5 O           2.6079   -1.3385    0.0000 O.3     1  UNL1       -0.4489
      6 O           5.8873    2.2763    0.0000 O.2     1  UNL1       -0.2512
      7 N           7.1256   -1.0003    0.0000 N.3     1  UNL1       -0.2902
      8 C           6.2596    0.4997    0.0000 C.3     1  UNL1        0.0681
      9 C           7.1256   -0.0003    0.0000 C.3     1  UNL1        0.0300
     10 C           6.1461   -0.1038    0.0000 C.3     1  UNL1        0.1301
     11 C           6.5462   -0.7967    0.0000 C.3     1  UNL1        0.0379
     12 C           5.3935   -0.0003    0.0000 C.ar    1  UNL1       -0.0208
     13 C           8.0356    0.5066    0.0000 C.3     1  UNL1       -0.0061
     14 C           6.2596   -1.5003    0.0000 C.3     1  UNL1        0.0284
     15 C           6.2435    1.5412    0.0000 C.2     1  UNL1       -0.0701
     16 C           5.3935   -1.0003    0.0000 C.ar    1  UNL1        0.0163
     17 C           8.0436    1.5482    0.0000 C.3     1  UNL1        0.0779
     18 C           7.1415    2.0690    0.0000 C.2     1  UNL1       -0.0585
     19 C           4.4996    0.5344    0.0000 C.ar    1  UNL1       -0.0114
     20 C           4.4996   -1.5349    0.0000 C.ar    1  UNL1        0.1700
     21 C           3.5935    0.0206    0.0000 C.ar    1  UNL1        0.1702
     22 C           3.5935   -1.0211    0.0000 C.ar    1  UNL1        0.2078
     23 C           5.1802    1.5692    0.0000 C.2     1  UNL1        0.3043
     24 C           8.9154    3.0448    0.0000 C.3     1  UNL1        0.0372
     25 C           2.0000   -0.5003    0.0000 C.3     1  UNL1        0.2334
     26 C           4.2143    1.8280    0.0000 C.3     1  UNL1        0.0332
     27 C           3.6510   -3.0448    0.0000 C.3     1  UNL1        0.0790
     28 H           7.8617   -0.4253    0.0000 H       1  UNL1        0.0476
     29 H           5.6543   -0.4813    0.0000 H       1  UNL1        0.0759
     30 H           5.9434   -0.9419    0.0000 H       1  UNL1        0.0463
     31 H           6.5147   -1.4159    0.0000 H       1  UNL1        0.0463
     32 H           8.2401   -0.0787    0.0000 H       1  UNL1        0.0309
     33 H           8.6472    0.6080    0.0000 H       1  UNL1        0.0309
     34 H           5.8610   -1.9752    0.0000 H       1  UNL1        0.0477
     35 H           6.6581   -1.9752    0.0000 H       1  UNL1        0.0477
     36 H           5.7030    1.8450    0.0000 H       1  UNL1        0.0580
     37 H           8.0448    2.1682    0.0000 H       1  UNL1        0.0641
     38 H           7.1391    2.6890    0.0000 H       1  UNL1        0.0595
     39 H           4.5068    1.1544    0.0000 H       1  UNL1        0.0658
     40 H           9.5354    3.0424    0.0000 H       1  UNL1        0.0524
     41 H           8.9178    3.6648    0.0000 H       1  UNL1        0.0524
     42 H           8.2954    3.0472    0.0000 H       1  UNL1        0.0524
     43 H           1.5391   -0.0855    0.0000 H       1  UNL1        0.1166
     44 H           1.5391   -0.9150    0.0000 H       1  UNL1        0.1166
     45 H           4.3748    2.4269    0.0000 H       1  UNL1        0.0342
     46 H           3.6154    1.9885    0.0000 H       1  UNL1        0.0342
     47 H           4.0538    1.2291    0.0000 H       1  UNL1        0.0342
     48 H           3.3348   -2.5115    0.0000 H       1  UNL1        0.0660
     49 H           3.1176   -3.3610    0.0000 H       1  UNL1        0.0660
     50 H           3.9672   -3.5782    0.0000 H       1  UNL1        0.0660
@<TRIPOS>BOND
     1    10     1    1
     2     1    23    1
     3    17     2    1
     4     2    24    1
     5     3    20    1
     6     3    27    1
     7     4    21    1
     8     4    25    1
     9     5    22    1
    10     5    25    1
    11     6    23    2
    12     7     9    1
    13     7    11    1
    14     7    14    1
    15     8     9    1
    16     8    10    1
    17     8    12    1
    18     8    15    1
    19     9    13    1
    20     9    28    1
    21    10    11    1
    22    10    29    1
    23    11    30    1
    24    11    31    1
    25    12    16   ar
    26    12    19   ar
    27    13    17    1
    28    13    32    1
    29    13    33    1
    30    14    16    1
    31    14    34    1
    32    14    35    1
    33    15    18    2
    34    15    36    1
    35    16    20   ar
    36    17    18    1
    37    17    37    1
    38    18    38    1
    39    19    21   ar
    40    19    39    1
    41    20    22   ar
    42    21    22   ar
    43    23    26    1
    44    24    40    1
    45    24    41    1
    46    24    42    1
    47    25    43    1
    48    25    44    1
    49    26    45    1
    50    26    46    1
    51    26    47    1
    52    27    48    1
    53    27    49    1
    54    27    50    1
