@<TRIPOS>MOLECULE
IMPHY012401
 161 169 0 0 0
SMALL
GASTEIGER

@<TRIPOS>ATOM
      1 O           9.1562    4.1557    0.0000 O.3     1  UNL1       -0.3448
      2 O           7.6271    5.3876    0.0000 O.3     1  UNL1       -0.3515
      3 O           7.7331   -4.0884    0.0000 O.3     1  UNL1       -0.3451
      4 O           6.0010   -4.0884    0.0000 O.3     1  UNL1       -0.3405
      5 O          11.7907    7.2550    0.0000 O.3     1  UNL1       -0.3484
      6 O           7.7331   -6.0884    0.0000 O.3     1  UNL1       -0.3378
      7 O           6.0010   -7.0884    0.0000 O.3     1  UNL1       -0.3400
      8 O           4.2690   -6.0884    0.0000 O.3     1  UNL1       -0.3865
      9 O          13.2881    8.1255    0.0000 O.3     1  UNL1       -0.3405
     10 O           8.5991   -4.5884    0.0000 O.3     1  UNL1       -0.3431
     11 O           4.2690   -3.0884    0.0000 O.3     1  UNL1       -0.3924
     12 O          12.7959    5.5260    0.0000 O.3     1  UNL1       -0.3841
     13 O           4.2690   -7.0884    0.0000 O.3     1  UNL1       -0.3405
     14 O           9.4651   -7.0884    0.0000 O.3     1  UNL1       -0.3841
     15 O          14.7959    5.5319    0.0000 O.3     1  UNL1       -0.3864
     16 O          15.7907    7.2670    0.0000 O.3     1  UNL1       -0.3865
     17 O           6.0010   -9.0884    0.0000 O.3     1  UNL1       -0.3841
     18 O          11.1972   -6.0884    0.0000 O.3     1  UNL1       -0.3864
     19 O          11.1972   -4.0884    0.0000 O.3     1  UNL1       -0.3866
     20 O           4.2690  -10.0884    0.0000 O.3     1  UNL1       -0.3864
     21 O          14.2829    9.8605    0.0000 O.3     1  UNL1       -0.3924
     22 O           2.5369   -9.0884    0.0000 O.3     1  UNL1       -0.3865
     23 O           2.5369   -6.0884    0.0000 O.3     1  UNL1       -0.3924
     24 C           7.7624    2.1085    0.0000 C.3     1  UNL1       -0.0233
     25 C           8.6303    1.6118    0.0000 C.3     1  UNL1       -0.0295
     26 C           7.9678    3.0811    0.0000 C.3     1  UNL1       -0.0015
     27 C           8.6342    0.6118    0.0000 C.3     1  UNL1       -0.0306
     28 C           8.9561    3.1880    0.0000 C.3     1  UNL1        0.0660
     29 C           7.7701    0.1085    0.0000 C.3     1  UNL1       -0.0285
     30 C           9.3647    2.2817    0.0000 C.3     1  UNL1       -0.0226
     31 C           6.8983    1.6051    0.0000 C.3     1  UNL1       -0.0467
     32 C           7.5655    3.9837    0.0000 C.3     1  UNL1        0.0160
     33 C           6.9021    0.6051    0.0000 C.3     1  UNL1       -0.0486
     34 C           7.7580   -0.9331    0.0000 C.3     1  UNL1       -0.0078
     35 C           8.2985    4.6465    0.0000 C.3     1  UNL1        0.1728
     36 C           6.8944    2.6051    0.0000 C.3     1  UNL1       -0.0590
     37 C           9.5461    0.1085    0.0000 C.3     1  UNL1       -0.0311
     38 C           8.6581   -1.4574    0.0000 C.2     1  UNL1       -0.0648
     39 C           6.8081   -1.4574    0.0000 C.3     1  UNL1       -0.0413
     40 C           9.5581   -0.9331    0.0000 C.2     1  UNL1       -0.0839
     41 C           6.5871    4.1904    0.0000 C.3     1  UNL1       -0.0572
     42 C           6.8939   -0.4297    0.0000 C.3     1  UNL1       -0.0556
     43 C           8.7959    5.5140    0.0000 C.3     1  UNL1        0.0020
     44 C           8.6706   -2.5423    0.0000 C.3     1  UNL1       -0.0047
     45 C           6.7956   -2.5423    0.0000 C.3     1  UNL1       -0.0254
     46 C           7.7331   -3.0884    0.0000 C.3     1  UNL1        0.0655
     47 C           9.7959    5.5170    0.0000 C.3     1  UNL1       -0.0435
     48 C           7.9333    6.3396    0.0000 C.3     1  UNL1        0.0397
     49 C          10.2933    6.3845    0.0000 C.3     1  UNL1       -0.0201
     50 C           6.8671   -4.5884    0.0000 C.3     1  UNL1        0.1886
     51 C          11.2933    6.3875    0.0000 C.3     1  UNL1        0.0533
     52 C           9.7907    7.2490    0.0000 C.3     1  UNL1       -0.0603
     53 C           6.8671   -5.5884    0.0000 C.3     1  UNL1        0.1410
     54 C           6.0010   -6.0884    0.0000 C.3     1  UNL1        0.1209
     55 C           5.1350   -4.5884    0.0000 C.3     1  UNL1        0.1130
     56 C           5.1350   -5.5884    0.0000 C.3     1  UNL1        0.1123
     57 C          12.7907    7.2580    0.0000 C.3     1  UNL1        0.1879
     58 C           4.2690   -4.0884    0.0000 C.3     1  UNL1        0.0730
     59 C           8.5991   -5.5884    0.0000 C.3     1  UNL1        0.1884
     60 C          13.2933    6.3935    0.0000 C.3     1  UNL1        0.1341
     61 C           5.1350   -7.5884    0.0000 C.3     1  UNL1        0.1884
     62 C           9.4651   -6.0884    0.0000 C.3     1  UNL1        0.1341
     63 C          14.2933    6.3965    0.0000 C.3     1  UNL1        0.1141
     64 C          14.2881    8.1285    0.0000 C.3     1  UNL1        0.1130
     65 C          14.7907    7.2640    0.0000 C.3     1  UNL1        0.1119
     66 C           5.1350   -8.5884    0.0000 C.3     1  UNL1        0.1341
     67 C          10.3312   -5.5884    0.0000 C.3     1  UNL1        0.1140
     68 C           9.4651   -4.0884    0.0000 C.3     1  UNL1        0.0873
     69 C          10.3312   -4.5884    0.0000 C.3     1  UNL1        0.1095
     70 C           4.2690   -9.0884    0.0000 C.3     1  UNL1        0.1141
     71 C           3.4030   -7.5884    0.0000 C.3     1  UNL1        0.1130
     72 C          14.7855    8.9960    0.0000 C.3     1  UNL1        0.0730
     73 C           3.4030   -8.5884    0.0000 C.3     1  UNL1        0.1119
     74 C           9.4651   -3.0884    0.0000 C.3     1  UNL1       -0.0361
     75 C           2.5369   -7.0884    0.0000 C.3     1  UNL1        0.0730
     76 H           9.4086    1.2701    0.0000 H       1  UNL1        0.0310
     77 H           7.1225    2.9915    0.0000 H       1  UNL1        0.0335
     78 H           9.3653    1.0453    0.0000 H       1  UNL1        0.0310
     79 H           9.8010    3.2812    0.0000 H       1  UNL1        0.0600
     80 H           8.5045   -0.3193    0.0000 H       1  UNL1        0.0312
     81 H           9.7321    1.7823    0.0000 H       1  UNL1        0.0293
     82 H           9.9000    2.5946    0.0000 H       1  UNL1        0.0293
     83 H           6.6840    2.1869    0.0000 H       1  UNL1        0.0271
     84 H           6.2881    1.4951    0.0000 H       1  UNL1        0.0271
     85 H           7.4040    4.5823    0.0000 H       1  UNL1        0.0354
     86 H           6.2911    0.7105    0.0000 H       1  UNL1        0.0268
     87 H           6.6923    0.0217    0.0000 H       1  UNL1        0.0268
     88 H           7.2023    3.1433    0.0000 H       1  UNL1        0.0235
     89 H           6.3563    2.9131    0.0000 H       1  UNL1        0.0235
     90 H           6.5865    2.0670    0.0000 H       1  UNL1        0.0235
     91 H          10.1581    0.0095    0.0000 H       1  UNL1        0.0310
     92 H           9.7484    0.6946    0.0000 H       1  UNL1        0.0310
     93 H           6.6058   -0.8713    0.0000 H       1  UNL1        0.0274
     94 H           6.1961   -1.5564    0.0000 H       1  UNL1        0.0274
     95 H          10.0975   -1.2389    0.0000 H       1  UNL1        0.0572
     96 H           6.7152    4.7970    0.0000 H       1  UNL1        0.0234
     97 H           5.9805    4.3185    0.0000 H       1  UNL1        0.0234
     98 H           6.4590    3.5838    0.0000 H       1  UNL1        0.0234
     99 H           7.2060    0.1060    0.0000 H       1  UNL1        0.0238
    100 H           6.3582   -0.1177    0.0000 H       1  UNL1        0.0238
    101 H           6.5818   -0.9655    0.0000 H       1  UNL1        0.0238
    102 H           8.9017    6.1249    0.0000 H       1  UNL1        0.0317
    103 H           8.2126    5.7243    0.0000 H       1  UNL1        0.0317
    104 H           8.8864   -3.1235    0.0000 H       1  UNL1        0.0335
    105 H           9.2802   -2.4291    0.0000 H       1  UNL1        0.0335
    106 H           6.1860   -2.4291    0.0000 H       1  UNL1        0.0290
    107 H           6.5798   -3.1235    0.0000 H       1  UNL1        0.0290
    108 H           8.2706   -3.3974    0.0000 H       1  UNL1        0.0600
    109 H           9.6900    4.9061    0.0000 H       1  UNL1        0.0270
    110 H          10.3791    5.3067    0.0000 H       1  UNL1        0.0270
    111 H           8.5235    6.1498    0.0000 H       1  UNL1        0.0525
    112 H           8.1231    6.9298    0.0000 H       1  UNL1        0.0525
    113 H           7.3431    6.5294    0.0000 H       1  UNL1        0.0525
    114 H           9.6733    6.3826    0.0000 H       1  UNL1        0.0320
    115 H           7.4040   -4.8984    0.0000 H       1  UNL1        0.0938
    116 H          11.1875    5.7766    0.0000 H       1  UNL1        0.0563
    117 H          11.8765    6.1772    0.0000 H       1  UNL1        0.0563
    118 H          10.3267    7.5606    0.0000 H       1  UNL1        0.0233
    119 H           9.4791    7.7850    0.0000 H       1  UNL1        0.0233
    120 H           9.2547    6.9374    0.0000 H       1  UNL1        0.0233
    121 H           6.8671   -6.2084    0.0000 H       1  UNL1        0.0675
    122 H           5.4641   -6.3984    0.0000 H       1  UNL1        0.0651
    123 H           5.1350   -3.9684    0.0000 H       1  UNL1        0.0647
    124 H           4.5981   -5.2784    0.0000 H       1  UNL1        0.0647
    125 H          12.4791    7.7940    0.0000 H       1  UNL1        0.0937
    126 H           3.6584   -3.9807    0.0000 H       1  UNL1        0.0584
    127 H           4.0569   -4.6710    0.0000 H       1  UNL1        0.0584
    128 H           8.5991   -6.2084    0.0000 H       1  UNL1        0.0938
    129 H          12.6733    6.3916    0.0000 H       1  UNL1        0.0671
    130 H           3.7320   -5.7784    0.0000 H       1  UNL1        0.2100
    131 H           5.1350   -6.9684    0.0000 H       1  UNL1        0.0938
    132 H          10.0021   -6.3984    0.0000 H       1  UNL1        0.0671
    133 H          13.9849    5.8586    0.0000 H       1  UNL1        0.0648
    134 H          13.9765    8.6645    0.0000 H       1  UNL1        0.0647
    135 H          15.1023    6.7280    0.0000 H       1  UNL1        0.0647
    136 H           3.7320   -2.7784    0.0000 H       1  UNL1        0.2095
    137 H           5.1350   -9.2084    0.0000 H       1  UNL1        0.0671
    138 H          10.8681   -5.2784    0.0000 H       1  UNL1        0.0648
    139 H           8.9282   -3.7784    0.0000 H       1  UNL1        0.0621
    140 H          10.3312   -3.9684    0.0000 H       1  UNL1        0.0646
    141 H          13.1075    4.9899    0.0000 H       1  UNL1        0.2101
    142 H           3.7320   -9.3984    0.0000 H       1  UNL1        0.0648
    143 H           3.4030   -6.9684    0.0000 H       1  UNL1        0.0647
    144 H          15.2616    8.5989    0.0000 H       1  UNL1        0.0584
    145 H          15.2593    9.3960    0.0000 H       1  UNL1        0.0584
    146 H           3.4030   -9.2084    0.0000 H       1  UNL1        0.0647
    147 H          10.0021   -7.3984    0.0000 H       1  UNL1        0.2101
    148 H          15.4159    5.5338    0.0000 H       1  UNL1        0.2100
    149 H          10.0851   -3.0884    0.0000 H       1  UNL1        0.0255
    150 H           9.4651   -2.4684    0.0000 H       1  UNL1        0.0255
    151 H           8.8451   -3.0884    0.0000 H       1  UNL1        0.0255
    152 H          16.0991    7.8048    0.0000 H       1  UNL1        0.2100
    153 H           6.0010   -9.7084    0.0000 H       1  UNL1        0.2101
    154 H          11.7341   -5.7784    0.0000 H       1  UNL1        0.2100
    155 H           1.9264   -6.9807    0.0000 H       1  UNL1        0.0584
    156 H           2.3249   -7.6710    0.0000 H       1  UNL1        0.0584
    157 H          11.7341   -4.3984    0.0000 H       1  UNL1        0.2100
    158 H           3.7320  -10.3984    0.0000 H       1  UNL1        0.2100
    159 H          14.5913   10.3984    0.0000 H       1  UNL1        0.2095
    160 H           2.0000   -8.7784    0.0000 H       1  UNL1        0.2100
    161 H           2.0000   -5.7784    0.0000 H       1  UNL1        0.2095
@<TRIPOS>BOND
     1     1    28    1
     2     1    35    1
     3    35     2    1
     4     2    48    1
     5    46     3    1
     6    50     3    1
     7     4    50    1
     8     4    55    1
     9     5    51    1
    10    57     5    1
    11     6    53    1
    12    59     6    1
    13    54     7    1
    14    61     7    1
    15    56     8    1
    16     8   130    1
    17     9    57    1
    18     9    64    1
    19    10    59    1
    20    10    68    1
    21    11    58    1
    22    11   136    1
    23    60    12    1
    24    12   141    1
    25    13    61    1
    26    13    71    1
    27    62    14    1
    28    14   147    1
    29    63    15    1
    30    15   148    1
    31    65    16    1
    32    16   152    1
    33    66    17    1
    34    17   153    1
    35    67    18    1
    36    18   154    1
    37    69    19    1
    38    19   157    1
    39    70    20    1
    40    20   158    1
    41    21    72    1
    42    21   159    1
    43    73    22    1
    44    22   160    1
    45    23    75    1
    46    23   161    1
    47    24    25    1
    48    24    26    1
    49    24    31    1
    50    24    36    1
    51    25    27    1
    52    25    30    1
    53    25    76    1
    54    26    28    1
    55    26    32    1
    56    26    77    1
    57    27    29    1
    58    27    37    1
    59    27    78    1
    60    28    30    1
    61    28    79    1
    62    29    33    1
    63    29    34    1
    64    29    80    1
    65    30    81    1
    66    30    82    1
    67    31    33    1
    68    31    83    1
    69    31    84    1
    70    32    35    1
    71    32    41    1
    72    32    85    1
    73    33    86    1
    74    33    87    1
    75    34    38    1
    76    34    39    1
    77    34    42    1
    78    35    43    1
    79    36    88    1
    80    36    89    1
    81    36    90    1
    82    37    40    1
    83    37    91    1
    84    37    92    1
    85    38    40    2
    86    38    44    1
    87    39    45    1
    88    39    93    1
    89    39    94    1
    90    40    95    1
    91    41    96    1
    92    41    97    1
    93    41    98    1
    94    42    99    1
    95    42   100    1
    96    42   101    1
    97    43    47    1
    98    43   102    1
    99    43   103    1
   100    44    46    1
   101    44   104    1
   102    44   105    1
   103    45    46    1
   104    45   106    1
   105    45   107    1
   106    46   108    1
   107    47    49    1
   108    47   109    1
   109    47   110    1
   110    48   111    1
   111    48   112    1
   112    48   113    1
   113    49    51    1
   114    49    52    1
   115    49   114    1
   116    50    53    1
   117    50   115    1
   118    51   116    1
   119    51   117    1
   120    52   118    1
   121    52   119    1
   122    52   120    1
   123    53    54    1
   124    53   121    1
   125    54    56    1
   126    54   122    1
   127    55    56    1
   128    55    58    1
   129    55   123    1
   130    56   124    1
   131    57    60    1
   132    57   125    1
   133    58   126    1
   134    58   127    1
   135    59    62    1
   136    59   128    1
   137    60    63    1
   138    60   129    1
   139    61    66    1
   140    61   131    1
   141    62    67    1
   142    62   132    1
   143    63    65    1
   144    63   133    1
   145    64    65    1
   146    64    72    1
   147    64   134    1
   148    65   135    1
   149    66    70    1
   150    66   137    1
   151    67    69    1
   152    67   138    1
   153    68    69    1
   154    68    74    1
   155    68   139    1
   156    69   140    1
   157    70    73    1
   158    70   142    1
   159    71    73    1
   160    71    75    1
   161    71   143    1
   162    72   144    1
   163    72   145    1
   164    73   146    1
   165    74   149    1
   166    74   150    1
   167    74   151    1
   168    75   155    1
   169    75   156    1
