@<TRIPOS>MOLECULE
IMPHY014475
 59 60 0 0 0
SMALL
GASTEIGER

@<TRIPOS>ATOM
      1 O           3.1350    3.3100    0.0000 O.3     1  UNL1       -0.3313
      2 O           1.4030    1.3100    0.0000 O.3     1  UNL1       -0.3865
      3 O           3.1350    0.3100    0.0000 O.3     1  UNL1       -0.3864
      4 O           4.8671    3.3100    0.0000 O.3     1  UNL1       -0.4572
      5 O           4.8671    1.3100    0.0000 O.3     1  UNL1       -0.3829
      6 O           0.5369    2.8100    0.0000 O.3     1  UNL1       -0.3924
      7 O           6.5991    4.3100    0.0000 O.3     1  UNL1       -0.4914
      8 O           5.7331    7.8100    0.0000 O.2     1  UNL1       -0.2957
      9 O           4.0010   13.8100    0.0000 O.3     2  UNL2       -0.4914
     10 O           2.2690   12.8100    0.0000 O.3     2  UNL2       -0.5033
     11 O           5.7331    9.8100    0.0000 O.2     2  UNL2       -0.2957
     12 C           2.2690    1.8100    0.0000 C.3     1  UNL1        0.1120
     13 C           3.1350    1.3100    0.0000 C.3     1  UNL1        0.1152
     14 C           2.2690    2.8100    0.0000 C.3     1  UNL1        0.1140
     15 C           4.0010    1.8100    0.0000 C.3     1  UNL1        0.1454
     16 C           4.0010    2.8100    0.0000 C.3     1  UNL1        0.2310
     17 C           1.4030    3.3100    0.0000 C.3     1  UNL1        0.0731
     18 C           4.8671    4.3100    0.0000 C.ar    1  UNL1        0.1654
     19 C           5.7331    4.8100    0.0000 C.ar    1  UNL1        0.1623
     20 C           4.0010    4.8100    0.0000 C.ar    1  UNL1       -0.0155
     21 C           5.7331    5.8100    0.0000 C.ar    1  UNL1       -0.0061
     22 C           4.0010    5.8100    0.0000 C.ar    1  UNL1       -0.0478
     23 C           4.8671    6.3100    0.0000 C.ar    1  UNL1        0.0179
     24 C           4.8671    7.3100    0.0000 C.2     1  UNL1        0.1503
     25 C           7.4651    4.8100    0.0000 C.3     1  UNL1        0.0790
     26 C           4.0010   12.8100    0.0000 C.ar    2  UNL2        0.1619
     27 C           4.8671   11.3100    0.0000 C.ar    2  UNL2        0.0179
     28 C           4.8671   12.3100    0.0000 C.ar    2  UNL2       -0.0061
     29 C           3.1350   12.3100    0.0000 C.ar    2  UNL2        0.1585
     30 C           4.0010   10.8100    0.0000 C.ar    2  UNL2       -0.0479
     31 C           3.1350   11.3100    0.0000 C.ar    2  UNL2       -0.0159
     32 C           5.7331   10.8100    0.0000 C.2     2  UNL2        0.1503
     33 C           4.8671   14.3100    0.0000 C.3     2  UNL2        0.0790
     34 H           2.2690    1.1900    0.0000 H       1  UNL1        0.0647
     35 H           2.5981    1.0000    0.0000 H       1  UNL1        0.0648
     36 H           2.2690    3.4300    0.0000 H       1  UNL1        0.0647
     37 H           4.0010    1.1900    0.0000 H       1  UNL1        0.0683
     38 H           4.0010    3.4300    0.0000 H       1  UNL1        0.1084
     39 H           1.8015    3.7850    0.0000 H       1  UNL1        0.0584
     40 H           1.0044    3.7850    0.0000 H       1  UNL1        0.0584
     41 H           1.4030    0.6900    0.0000 H       1  UNL1        0.2100
     42 H           2.5981    0.0000    0.0000 H       1  UNL1        0.2100
     43 H           4.8671    0.6900    0.0000 H       1  UNL1        0.2102
     44 H           0.0000    3.1200    0.0000 H       1  UNL1        0.2095
     45 H           3.4641    4.5000    0.0000 H       1  UNL1        0.0655
     46 H           6.2700    6.1200    0.0000 H       1  UNL1        0.0662
     47 H           3.4641    6.1200    0.0000 H       1  UNL1        0.0626
     48 H           4.3301    7.6200    0.0000 H       1  UNL1        0.1081
     49 H           7.7751    4.2731    0.0000 H       1  UNL1        0.0660
     50 H           8.0021    5.1200    0.0000 H       1  UNL1        0.0660
     51 H           7.1551    5.3469    0.0000 H       1  UNL1        0.0660
     52 H           5.4040   12.6200    0.0000 H       2  UNL2        0.0662
     53 H           4.0010   10.1900    0.0000 H       2  UNL2        0.0626
     54 H           2.5981   11.0000    0.0000 H       2  UNL2        0.0655
     55 H           6.2700   11.1200    0.0000 H       2  UNL2        0.1081
     56 H           5.1771   13.7731    0.0000 H       2  UNL2        0.0660
     57 H           5.4040   14.6200    0.0000 H       2  UNL2        0.0660
     58 H           4.5571   14.8469    0.0000 H       2  UNL2        0.0660
     59 H           1.7320   12.5000    0.0000 H       2  UNL2        0.2923
@<TRIPOS>BOND
     1     1    14    1
     2     1    16    1
     3    12     2    1
     4     2    41    1
     5    13     3    1
     6     3    42    1
     7    16     4    1
     8     4    18    1
     9    15     5    1
    10     5    43    1
    11     6    17    1
    12     6    44    1
    13     7    19    1
    14     7    25    1
    15     8    24    2
    16     9    26    1
    17     9    33    1
    18    10    29    1
    19    10    59    1
    20    11    32    2
    21    12    13    1
    22    12    14    1
    23    12    34    1
    24    13    15    1
    25    13    35    1
    26    14    17    1
    27    14    36    1
    28    15    16    1
    29    15    37    1
    30    16    38    1
    31    17    39    1
    32    17    40    1
    33    18    19   ar
    34    18    20   ar
    35    19    21   ar
    36    20    22   ar
    37    20    45    1
    38    21    23   ar
    39    21    46    1
    40    22    23   ar
    41    22    47    1
    42    23    24    1
    43    24    48    1
    44    25    49    1
    45    25    50    1
    46    25    51    1
    47    26    28   ar
    48    26    29   ar
    49    27    28   ar
    50    27    30   ar
    51    27    32    1
    52    28    52    1
    53    29    31   ar
    54    30    31   ar
    55    30    53    1
    56    31    54    1
    57    32    55    1
    58    33    56    1
    59    33    57    1
    60    33    58    1
