@<TRIPOS>MOLECULE
IMPHY004123
 52 53 0 0 0
SMALL
GASTEIGER

@<TRIPOS>ATOM
      1 AS          6.3301    6.0950    0.0000 As      1  UNL1        0.0000
      2 O           6.3301    7.0950    0.0000 O.3     1  UNL1        0.0000
      3 O           7.3301    6.0950    0.0000 O.3     1  UNL1        0.0000
      4 O           5.3301    6.0950    0.0000 O.2     1  UNL1        0.0000
      5 N           5.4641   -2.4050    0.0000 N.pl3   1  UNL1        0.0000
      6 N           5.4641    1.5950    0.0000 N.2     1  UNL1        0.0000
      7 N           6.3301    2.0950    0.0000 N.2     1  UNL1        0.0000
      8 C           3.7320   -4.4050    0.0000 C.3     1  UNL1        0.0000
      9 C           3.7320   -5.4050    0.0000 C.3     1  UNL1        0.0000
     10 C           4.5981   -3.9050    0.0000 C.3     1  UNL1        0.0000
     11 C           2.8660   -5.9050    0.0000 C.3     1  UNL1        0.0000
     12 C           4.5981   -2.9050    0.0000 C.3     1  UNL1        0.0000
     13 C           2.8660   -6.9050    0.0000 C.3     1  UNL1        0.0000
     14 C           2.0000   -7.4050    0.0000 C.3     1  UNL1        0.0000
     15 C           5.4641   -1.4050    0.0000 C.ar    1  UNL1        0.0000
     16 C           6.3301   -0.9050    0.0000 C.ar    1  UNL1        0.0000
     17 C           4.5981   -0.9050    0.0000 C.ar    1  UNL1        0.0000
     18 C           6.3301    0.0950    0.0000 C.ar    1  UNL1        0.0000
     19 C           4.5981    0.0950    0.0000 C.ar    1  UNL1        0.0000
     20 C           5.4641    0.5950    0.0000 C.ar    1  UNL1        0.0000
     21 C           6.3301    5.0950    0.0000 C.ar    1  UNL1        0.0000
     22 C           6.3301    3.0950    0.0000 C.ar    1  UNL1        0.0000
     23 C           5.4641    4.5950    0.0000 C.ar    1  UNL1        0.0000
     24 C           7.1962    4.5950    0.0000 C.ar    1  UNL1        0.0000
     25 C           5.4641    3.5950    0.0000 C.ar    1  UNL1        0.0000
     26 C           7.1962    3.5950    0.0000 C.ar    1  UNL1        0.0000
     27 H           3.5200   -3.8224    0.0000 H       1  UNL1        0.0000
     28 H           3.1215   -4.5127    0.0000 H       1  UNL1        0.0000
     29 H           3.9441   -5.9876    0.0000 H       1  UNL1        0.0000
     30 H           4.3426   -5.2973    0.0000 H       1  UNL1        0.0000
     31 H           4.8101   -4.4876    0.0000 H       1  UNL1        0.0000
     32 H           5.2087   -3.7973    0.0000 H       1  UNL1        0.0000
     33 H           2.6540   -5.3224    0.0000 H       1  UNL1        0.0000
     34 H           2.2554   -6.0127    0.0000 H       1  UNL1        0.0000
     35 H           4.3860   -2.3224    0.0000 H       1  UNL1        0.0000
     36 H           3.9875   -3.0127    0.0000 H       1  UNL1        0.0000
     37 H           3.0781   -7.4876    0.0000 H       1  UNL1        0.0000
     38 H           3.4766   -6.7973    0.0000 H       1  UNL1        0.0000
     39 H           6.0010   -2.7150    0.0000 H       1  UNL1        0.0000
     40 H           1.6900   -6.8681    0.0000 H       1  UNL1        0.0000
     41 H           1.4631   -7.7150    0.0000 H       1  UNL1        0.0000
     42 H           2.3100   -7.9419    0.0000 H       1  UNL1        0.0000
     43 H           6.8671   -1.2150    0.0000 H       1  UNL1        0.0000
     44 H           4.0611   -1.2150    0.0000 H       1  UNL1        0.0000
     45 H           6.8671    0.4050    0.0000 H       1  UNL1        0.0000
     46 H           4.0611    0.4050    0.0000 H       1  UNL1        0.0000
     47 H           4.9272    4.9050    0.0000 H       1  UNL1        0.0000
     48 H           7.7331    4.9050    0.0000 H       1  UNL1        0.0000
     49 H           4.9272    3.2850    0.0000 H       1  UNL1        0.0000
     50 H           7.7331    3.2850    0.0000 H       1  UNL1        0.0000
     51 H           6.8671    7.4050    0.0000 H       1  UNL1        0.0000
     52 H           7.6401    6.6319    0.0000 H       1  UNL1        0.0000
@<TRIPOS>BOND
     1     1     2    1
     2     1     3    1
     3     1     4    2
     4     1    21    1
     5     2    51    1
     6     3    52    1
     7     5    12    1
     8     5    15    1
     9     5    39    1
    10     6     7    2
    11     6    20    1
    12     7    22    1
    13     8     9    1
    14     8    10    1
    15     8    27    1
    16     8    28    1
    17     9    11    1
    18     9    29    1
    19     9    30    1
    20    10    12    1
    21    10    31    1
    22    10    32    1
    23    11    13    1
    24    11    33    1
    25    11    34    1
    26    12    35    1
    27    12    36    1
    28    13    14    1
    29    13    37    1
    30    13    38    1
    31    14    40    1
    32    14    41    1
    33    14    42    1
    34    15    16   ar
    35    15    17   ar
    36    16    18   ar
    37    16    43    1
    38    17    19   ar
    39    17    44    1
    40    18    20   ar
    41    18    45    1
    42    19    20   ar
    43    19    46    1
    44    21    23   ar
    45    21    24   ar
    46    22    25   ar
    47    22    26   ar
    48    23    25   ar
    49    23    47    1
    50    24    26   ar
    51    24    48    1
    52    25    49    1
    53    26    50    1
