@<TRIPOS>MOLECULE
IMPHY005846
 21 20 0 0 0
SMALL
GASTEIGER

@<TRIPOS>ATOM
      1 C           5.4641   -0.2500    0.0000 C.2     1  UNL1       -0.0403
      2 C           6.3301    0.2500    0.0000 C.2     1  UNL1       -0.0540
      3 C           4.5981    0.2500    0.0000 C.3     1  UNL1        0.0339
      4 C           7.1962   -0.2500    0.0000 C.3     1  UNL1       -0.0400
      5 C           5.4641   -1.2500    0.0000 C.2     1  UNL1       -0.0944
      6 C           6.3301    1.2500    0.0000 C.2     1  UNL1       -0.0955
      7 C           3.7320   -0.2500    0.0000 C.1     1  UNL1       -0.0978
      8 C           2.8660   -0.7500    0.0000 C.1     1  UNL1       -0.1053
      9 C           2.0000   -1.2500    0.0000 C.3     1  UNL1       -0.0026
     10 H           4.9966    0.7249    0.0000 H       1  UNL1        0.0446
     11 H           4.1996    0.7249    0.0000 H       1  UNL1        0.0446
     12 H           6.8862   -0.7869    0.0000 H       1  UNL1        0.0277
     13 H           7.7331   -0.5600    0.0000 H       1  UNL1        0.0277
     14 H           7.5062    0.2869    0.0000 H       1  UNL1        0.0277
     15 H           4.9272   -1.5600    0.0000 H       1  UNL1        0.0538
     16 H           6.0010   -1.5600    0.0000 H       1  UNL1        0.0538
     17 H           6.8671    1.5600    0.0000 H       1  UNL1        0.0537
     18 H           5.7932    1.5600    0.0000 H       1  UNL1        0.0537
     19 H           1.6900   -0.7131    0.0000 H       1  UNL1        0.0362
     20 H           1.4631   -1.5600    0.0000 H       1  UNL1        0.0362
     21 H           2.3100   -1.7869    0.0000 H       1  UNL1        0.0362
@<TRIPOS>BOND
     1     1     2    1
     2     1     3    1
     3     1     5    2
     4     2     4    1
     5     2     6    2
     6     3     7    1
     7     3    10    1
     8     3    11    1
     9     4    12    1
    10     4    13    1
    11     4    14    1
    12     5    15    1
    13     5    16    1
    14     6    17    1
    15     6    18    1
    16     7     8    3
    17     8     9    1
    18     9    19    1
    19     9    20    1
    20     9    21    1
