@<TRIPOS>MOLECULE
IMPHY001379
 96 101 0 0 0
SMALL
GASTEIGER

@<TRIPOS>ATOM
      1 O           8.5868    3.9403    0.0000 O.3     1  UNL1       -0.3915
      2 O           6.8671   -4.2040    0.0000 O.3     1  UNL1       -0.3451
      3 O           5.1350   -4.2040    0.0000 O.3     1  UNL1       -0.3405
      4 O           6.8671   -6.2040    0.0000 O.3     1  UNL1       -0.3841
      5 O           5.1350   -7.2040    0.0000 O.3     1  UNL1       -0.3864
      6 O           3.4030   -6.2040    0.0000 O.3     1  UNL1       -0.3865
      7 O           2.5369   -4.7040    0.0000 O.3     1  UNL1       -0.3924
      8 N           6.0674    5.4006    0.0000 N.3     1  UNL1       -0.3127
      9 C           6.8963    1.9928    0.0000 C.3     1  UNL1       -0.0234
     10 C           7.7643    1.4962    0.0000 C.3     1  UNL1       -0.0296
     11 C           7.7681    0.4962    0.0000 C.3     1  UNL1       -0.0306
     12 C           7.1018    2.9655    0.0000 C.3     1  UNL1       -0.0053
     13 C           6.9040   -0.0071    0.0000 C.3     1  UNL1       -0.0285
     14 C           6.0322    1.4895    0.0000 C.3     1  UNL1       -0.0467
     15 C           8.4987    2.1661    0.0000 C.3     1  UNL1       -0.0230
     16 C           6.8920   -1.0487    0.0000 C.3     1  UNL1       -0.0078
     17 C           8.0901    3.0723    0.0000 C.3     1  UNL1        0.0591
     18 C           6.0361    0.4895    0.0000 C.3     1  UNL1       -0.0486
     19 C           6.4311    3.7072    0.0000 C.3     1  UNL1       -0.0228
     20 C           8.6801   -0.0071    0.0000 C.3     1  UNL1       -0.0311
     21 C           6.0284    2.4895    0.0000 C.3     1  UNL1       -0.0590
     22 C           7.7920   -1.5730    0.0000 C.2     1  UNL1       -0.0648
     23 C           5.9421   -1.5730    0.0000 C.3     1  UNL1       -0.0413
     24 C           8.6921   -1.0487    0.0000 C.2     1  UNL1       -0.0839
     25 C           6.7381    4.6589    0.0000 C.3     1  UNL1        0.0106
     26 C           6.0279   -0.5454    0.0000 C.3     1  UNL1       -0.0556
     27 C           7.8046   -2.6579    0.0000 C.3     1  UNL1       -0.0047
     28 C           5.9295   -2.6579    0.0000 C.3     1  UNL1       -0.0254
     29 C           5.4534    3.4972    0.0000 C.3     1  UNL1       -0.0606
     30 C           6.8671   -3.2040    0.0000 C.3     1  UNL1        0.0655
     31 C           7.7158    4.8689    0.0000 C.3     1  UNL1       -0.0370
     32 C           8.0228    5.8206    0.0000 C.3     1  UNL1       -0.0479
     33 C           6.3744    6.3523    0.0000 C.3     1  UNL1       -0.0013
     34 C           7.3521    6.5623    0.0000 C.3     1  UNL1       -0.0313
     35 C           6.0010   -4.7040    0.0000 C.3     1  UNL1        0.1882
     36 C           7.6591    7.5140    0.0000 C.3     1  UNL1       -0.0613
     37 C           6.0010   -5.7040    0.0000 C.3     1  UNL1        0.1341
     38 C           5.1350   -6.2040    0.0000 C.3     1  UNL1        0.1141
     39 C           4.2690   -4.7040    0.0000 C.3     1  UNL1        0.1130
     40 C           4.2690   -5.7040    0.0000 C.3     1  UNL1        0.1119
     41 C           3.4030   -4.2040    0.0000 C.3     1  UNL1        0.0730
     42 H           8.5426    1.1545    0.0000 H       1  UNL1        0.0310
     43 H           8.4993    0.9297    0.0000 H       1  UNL1        0.0310
     44 H           7.3225    3.5448    0.0000 H       1  UNL1        0.0334
     45 H           7.6385   -0.4350    0.0000 H       1  UNL1        0.0312
     46 H           5.8179    2.0713    0.0000 H       1  UNL1        0.0271
     47 H           5.4221    1.3795    0.0000 H       1  UNL1        0.0271
     48 H           8.8661    1.6667    0.0000 H       1  UNL1        0.0293
     49 H           9.0340    2.4790    0.0000 H       1  UNL1        0.0293
     50 H           8.7094    3.0425    0.0000 H       1  UNL1        0.0596
     51 H           5.4251    0.5948    0.0000 H       1  UNL1        0.0268
     52 H           5.8263   -0.0939    0.0000 H       1  UNL1        0.0268
     53 H           6.0152    4.1670    0.0000 H       1  UNL1        0.0317
     54 H           9.2921   -0.1062    0.0000 H       1  UNL1        0.0310
     55 H           8.8824    0.5789    0.0000 H       1  UNL1        0.0310
     56 H           6.3363    3.0276    0.0000 H       1  UNL1        0.0235
     57 H           5.4902    2.7974    0.0000 H       1  UNL1        0.0235
     58 H           5.7204    1.9514    0.0000 H       1  UNL1        0.0235
     59 H           5.7398   -0.9869    0.0000 H       1  UNL1        0.0274
     60 H           5.3300   -1.6720    0.0000 H       1  UNL1        0.0274
     61 H           9.2314   -1.3546    0.0000 H       1  UNL1        0.0572
     62 H           7.3082    4.0284    0.0000 H       1  UNL1        0.0463
     63 H           6.3400   -0.0096    0.0000 H       1  UNL1        0.0238
     64 H           5.4922   -0.2333    0.0000 H       1  UNL1        0.0238
     65 H           5.7158   -1.0811    0.0000 H       1  UNL1        0.0238
     66 H           8.0204   -3.2392    0.0000 H       1  UNL1        0.0335
     67 H           8.4142   -2.5448    0.0000 H       1  UNL1        0.0335
     68 H           5.3199   -2.5448    0.0000 H       1  UNL1        0.0290
     69 H           5.7137   -3.2392    0.0000 H       1  UNL1        0.0290
     70 H           5.3232    4.1034    0.0000 H       1  UNL1        0.0233
     71 H           4.8472    3.3670    0.0000 H       1  UNL1        0.0233
     72 H           5.5836    2.8910    0.0000 H       1  UNL1        0.0233
     73 H           7.4046   -3.5130    0.0000 H       1  UNL1        0.0600
     74 H           9.2068    3.9427    0.0000 H       1  UNL1        0.2098
     75 H           7.7387    4.2493    0.0000 H       1  UNL1        0.0280
     76 H           8.3299    4.7839    0.0000 H       1  UNL1        0.0280
     77 H           5.4612    5.2704    0.0000 H       1  UNL1        0.1222
     78 H           8.5708    5.5307    0.0000 H       1  UNL1        0.0269
     79 H           8.4034    6.3100    0.0000 H       1  UNL1        0.0269
     80 H           6.3514    6.9719    0.0000 H       1  UNL1        0.0427
     81 H           5.7602    6.4373    0.0000 H       1  UNL1        0.0427
     82 H           6.9362    7.0222    0.0000 H       1  UNL1        0.0310
     83 H           6.0010   -4.0840    0.0000 H       1  UNL1        0.0937
     84 H           8.2491    7.3237    0.0000 H       1  UNL1        0.0233
     85 H           7.8494    8.1041    0.0000 H       1  UNL1        0.0233
     86 H           7.0690    7.7044    0.0000 H       1  UNL1        0.0233
     87 H           6.0010   -6.3240    0.0000 H       1  UNL1        0.0671
     88 H           4.5981   -6.5140    0.0000 H       1  UNL1        0.0648
     89 H           4.2690   -4.0840    0.0000 H       1  UNL1        0.0647
     90 H           3.7320   -5.3940    0.0000 H       1  UNL1        0.0647
     91 H           6.8671   -6.8240    0.0000 H       1  UNL1        0.2101
     92 H           3.8015   -3.7291    0.0000 H       1  UNL1        0.0584
     93 H           3.0044   -3.7291    0.0000 H       1  UNL1        0.0584
     94 H           4.5981   -7.5140    0.0000 H       1  UNL1        0.2100
     95 H           3.4030   -6.8240    0.0000 H       1  UNL1        0.2100
     96 H           2.0000   -4.3940    0.0000 H       1  UNL1        0.2095
@<TRIPOS>BOND
     1    17     1    1
     2     1    74    1
     3    30     2    1
     4    35     2    1
     5     3    35    1
     6     3    39    1
     7    37     4    1
     8     4    91    1
     9    38     5    1
    10     5    94    1
    11    40     6    1
    12     6    95    1
    13     7    41    1
    14     7    96    1
    15     8    25    1
    16     8    33    1
    17     8    77    1
    18     9    10    1
    19     9    12    1
    20     9    14    1
    21     9    21    1
    22    10    11    1
    23    10    15    1
    24    10    42    1
    25    11    13    1
    26    11    20    1
    27    11    43    1
    28    12    17    1
    29    12    19    1
    30    12    44    1
    31    13    16    1
    32    13    18    1
    33    13    45    1
    34    14    18    1
    35    14    46    1
    36    14    47    1
    37    15    17    1
    38    15    48    1
    39    15    49    1
    40    16    22    1
    41    16    23    1
    42    16    26    1
    43    17    50    1
    44    18    51    1
    45    18    52    1
    46    19    25    1
    47    19    29    1
    48    19    53    1
    49    20    24    1
    50    20    54    1
    51    20    55    1
    52    21    56    1
    53    21    57    1
    54    21    58    1
    55    22    24    2
    56    22    27    1
    57    23    28    1
    58    23    59    1
    59    23    60    1
    60    24    61    1
    61    25    31    1
    62    25    62    1
    63    26    63    1
    64    26    64    1
    65    26    65    1
    66    27    30    1
    67    27    66    1
    68    27    67    1
    69    28    30    1
    70    28    68    1
    71    28    69    1
    72    29    70    1
    73    29    71    1
    74    29    72    1
    75    30    73    1
    76    31    32    1
    77    31    75    1
    78    31    76    1
    79    32    34    1
    80    32    78    1
    81    32    79    1
    82    33    34    1
    83    33    80    1
    84    33    81    1
    85    34    36    1
    86    34    82    1
    87    35    37    1
    88    35    83    1
    89    36    84    1
    90    36    85    1
    91    36    86    1
    92    37    38    1
    93    37    87    1
    94    38    40    1
    95    38    88    1
    96    39    40    1
    97    39    41    1
    98    39    89    1
    99    40    90    1
   100    41    92    1
   101    41    93    1
