@<TRIPOS>MOLECULE
IMPHY002299
 69 72 0 0 0
SMALL
GASTEIGER

@<TRIPOS>ATOM
      1 O           9.4893    0.3223    0.0000 O.3     1  UNL1       -0.4542
      2 O           7.7331    3.2134    0.0000 O.3     1  UNL1       -0.3812
      3 O           6.0010    1.2134    0.0000 O.2     1  UNL1       -0.4707
      4 O           6.8671   -0.2866    0.0000 O.3     1  UNL1       -0.3093
      5 O           8.9900    3.4687    0.0000 O.3     1  UNL1       -0.3885
      6 O           5.1350   -0.2866    0.0000 O.3     1  UNL1       -0.3404
      7 O           6.8671   -2.2866    0.0000 O.3     1  UNL1       -0.3841
      8 O           5.1350   -3.2866    0.0000 O.3     1  UNL1       -0.3864
      9 O           3.4030   -2.2866    0.0000 O.3     1  UNL1       -0.3865
     10 O          10.5050    1.7254    0.0000 O.2     1  UNL1       -0.2449
     11 O           2.5369   -0.7866    0.0000 O.3     1  UNL1       -0.3924
     12 O          11.8166   -2.4315    0.0000 O.3     1  UNL1       -0.4914
     13 O          13.6423   -1.6149    0.0000 O.3     1  UNL1       -0.4915
     14 C           7.7331    1.2134    0.0000 C.3     1  UNL1        0.0959
     15 C           8.6793    0.9087    0.0000 C.3     1  UNL1        0.1250
     16 C           7.7331    2.2134    0.0000 C.3     1  UNL1        0.1252
     17 C           8.6793    2.5182    0.0000 C.3     1  UNL1        0.0918
     18 C           9.2629    1.7134    0.0000 C.3     1  UNL1        0.0166
     19 C           6.8671    0.7134    0.0000 C.3     1  UNL1        0.2129
     20 C           8.3719   -0.0429    0.0000 C.3     1  UNL1       -0.0242
     21 C           6.8671    2.7134    0.0000 C.2     1  UNL1       -0.0153
     22 C           6.0010    2.2134    0.0000 C.2     1  UNL1        0.0867
     23 C           6.0010   -0.7866    0.0000 C.3     1  UNL1        0.1918
     24 C           6.0010   -1.7866    0.0000 C.3     1  UNL1        0.1342
     25 C           5.1350   -2.2866    0.0000 C.3     1  UNL1        0.1141
     26 C          10.4022    0.7306    0.0000 C.2     1  UNL1        0.3398
     27 C           4.2690   -1.7866    0.0000 C.3     1  UNL1        0.1119
     28 C           4.2690   -0.7866    0.0000 C.3     1  UNL1        0.1130
     29 C          11.2122    0.1443    0.0000 C.ar    1  UNL1        0.0627
     30 C           3.4030   -0.2866    0.0000 C.3     1  UNL1        0.0730
     31 C          11.1094   -0.8504    0.0000 C.ar    1  UNL1       -0.0023
     32 C          12.1251    0.5526    0.0000 C.ar    1  UNL1       -0.0441
     33 C          11.9194   -1.4368    0.0000 C.ar    1  UNL1        0.1623
     34 C          12.9351   -0.0338    0.0000 C.ar    1  UNL1       -0.0155
     35 C          12.8323   -1.0285    0.0000 C.ar    1  UNL1        0.1615
     36 C          12.6267   -3.0179    0.0000 C.3     1  UNL1        0.0790
     37 C          14.5552   -1.2066    0.0000 C.3     1  UNL1        0.0790
     38 H           7.8230    0.3682    0.0000 H       1  UNL1        0.0433
     39 H           8.2418    2.9575    0.0000 H       1  UNL1        0.0627
     40 H           9.7238    1.2987    0.0000 H       1  UNL1        0.0330
     41 H           9.7238    2.1282    0.0000 H       1  UNL1        0.0330
     42 H           7.4040    0.4034    0.0000 H       1  UNL1        0.1061
     43 H           7.7820    0.1477    0.0000 H       1  UNL1        0.0268
     44 H           8.1814   -0.6329    0.0000 H       1  UNL1        0.0268
     45 H           8.9619   -0.2334    0.0000 H       1  UNL1        0.0268
     46 H           6.8671    3.3334    0.0000 H       1  UNL1        0.0632
     47 H           7.1962    3.5234    0.0000 H       1  UNL1        0.2107
     48 H           5.4641    2.5234    0.0000 H       1  UNL1        0.1022
     49 H           9.5966    3.5966    0.0000 H       1  UNL1        0.2099
     50 H           6.0010   -0.1666    0.0000 H       1  UNL1        0.0939
     51 H           6.0010   -2.4066    0.0000 H       1  UNL1        0.0671
     52 H           4.5981   -2.5966    0.0000 H       1  UNL1        0.0648
     53 H           3.7320   -1.4766    0.0000 H       1  UNL1        0.0647
     54 H           4.2690   -0.1666    0.0000 H       1  UNL1        0.0647
     55 H           3.8015    0.1884    0.0000 H       1  UNL1        0.0584
     56 H           3.0044    0.1884    0.0000 H       1  UNL1        0.0584
     57 H           6.8671   -2.9066    0.0000 H       1  UNL1        0.2101
     58 H           4.5981   -3.5966    0.0000 H       1  UNL1        0.2100
     59 H           3.4030   -2.9066    0.0000 H       1  UNL1        0.2100
     60 H          10.5434   -1.1036    0.0000 H       1  UNL1        0.0663
     61 H          12.1888    1.1693    0.0000 H       1  UNL1        0.0627
     62 H           2.0000   -0.4766    0.0000 H       1  UNL1        0.2095
     63 H          13.5010    0.2194    0.0000 H       1  UNL1        0.0655
     64 H          12.2631   -3.5201    0.0000 H       1  UNL1        0.0660
     65 H          13.1289   -3.3815    0.0000 H       1  UNL1        0.0660
     66 H          12.9902   -2.5157    0.0000 H       1  UNL1        0.0660
     67 H          14.8083   -1.7725    0.0000 H       1  UNL1        0.0660
     68 H          15.1211   -0.9534    0.0000 H       1  UNL1        0.0660
     69 H          14.3020   -0.6406    0.0000 H       1  UNL1        0.0660
@<TRIPOS>BOND
     1    15     1    1
     2     1    26    1
     3    16     2    1
     4     2    47    1
     5     3    19    1
     6     3    22    1
     7    19     4    1
     8    23     4    1
     9    17     5    1
    10     5    49    1
    11     6    23    1
    12     6    28    1
    13    24     7    1
    14     7    57    1
    15    25     8    1
    16     8    58    1
    17    27     9    1
    18     9    59    1
    19    10    26    2
    20    11    30    1
    21    11    62    1
    22    12    33    1
    23    12    36    1
    24    13    35    1
    25    13    37    1
    26    14    15    1
    27    14    16    1
    28    14    19    1
    29    14    38    1
    30    15    18    1
    31    15    20    1
    32    16    17    1
    33    16    21    1
    34    17    18    1
    35    17    39    1
    36    18    40    1
    37    18    41    1
    38    19    42    1
    39    20    43    1
    40    20    44    1
    41    20    45    1
    42    21    22    2
    43    21    46    1
    44    22    48    1
    45    23    24    1
    46    23    50    1
    47    24    25    1
    48    24    51    1
    49    25    27    1
    50    25    52    1
    51    26    29    1
    52    27    28    1
    53    27    53    1
    54    28    30    1
    55    28    54    1
    56    29    31   ar
    57    29    32   ar
    58    30    55    1
    59    30    56    1
    60    31    33   ar
    61    31    60    1
    62    32    34   ar
    63    32    61    1
    64    33    35   ar
    65    34    35   ar
    66    34    63    1
    67    36    64    1
    68    36    65    1
    69    36    66    1
    70    37    67    1
    71    37    68    1
    72    37    69    1
