@<TRIPOS>MOLECULE
IMPHY000943
 53 56 0 0 0
SMALL
GASTEIGER

@<TRIPOS>ATOM
      1 O           7.6967   -0.0896    0.0000 O.3     1  UNL1       -0.3815
      2 O           5.0109   -1.3112    0.0000 O.2     1  UNL1       -0.2957
      3 O           7.6967    0.9104    0.0000 O.3     1  UNL1       -0.3844
      4 O           8.5462   -1.0504    0.0000 O.3     1  UNL1       -0.3845
      5 O           6.8306    2.4104    0.0000 O.3     1  UNL1       -0.3906
      6 C           3.3665    0.4104    0.0000 C.3     1  UNL1       -0.0193
      7 C           3.3665   -0.5896    0.0000 C.3     1  UNL1       -0.0311
      8 C           2.5000   -0.0896    0.0000 C.3     1  UNL1       -0.0277
      9 C           4.2326    0.9104    0.0000 C.3     1  UNL1        0.0405
     10 C           4.2326   -1.0896    0.0000 C.3     1  UNL1       -0.0455
     11 C           5.9646   -1.0896    0.0000 C.3     1  UNL1        0.0845
     12 C           5.0986   -0.5896    0.0000 C.3     1  UNL1       -0.0249
     13 C           6.8306   -0.5896    0.0000 C.3     1  UNL1        0.1409
     14 C           4.8219   -0.3292    0.0000 C.2     1  UNL1        0.1534
     15 C           2.0000   -0.9556    0.0000 C.3     1  UNL1       -0.0593
     16 C           2.0000    0.7765    0.0000 C.3     1  UNL1       -0.0593
     17 C           5.0986    0.4104    0.0000 C.2     1  UNL1       -0.0696
     18 C           6.1738   -2.0614    0.0000 C.2     1  UNL1       -0.0662
     19 C           6.8306    0.4104    0.0000 C.3     1  UNL1        0.1110
     20 C           7.5676   -1.2566    0.0000 C.3     1  UNL1        0.1087
     21 C           5.9646   -0.0896    0.0000 C.3     1  UNL1       -0.0611
     22 C           5.9646    0.9104    0.0000 C.2     1  UNL1       -0.0167
     23 C           7.1625   -2.1644    0.0000 C.2     1  UNL1       -0.0446
     24 C           5.9646    1.9104    0.0000 C.3     1  UNL1        0.0678
     25 C           7.6625   -3.0304    0.0000 C.3     1  UNL1       -0.0412
     26 H           2.9415    1.1466    0.0000 H       1  UNL1        0.0319
     27 H           3.3665   -1.4396    0.0000 H       1  UNL1        0.0309
     28 H           4.0719    1.7451    0.0000 H       1  UNL1        0.0423
     29 H           3.8340   -1.5645    0.0000 H       1  UNL1        0.0271
     30 H           4.6311   -1.5645    0.0000 H       1  UNL1        0.0271
     31 H           4.7886   -0.0526    0.0000 H       1  UNL1        0.0312
     32 H           2.5369    1.0865    0.0000 H       1  UNL1        0.0235
     33 H           1.4631   -0.6456    0.0000 H       1  UNL1        0.0235
     34 H           1.6900   -1.4925    0.0000 H       1  UNL1        0.0235
     35 H           2.5369   -1.2656    0.0000 H       1  UNL1        0.0235
     36 H           1.6900    1.3134    0.0000 H       1  UNL1        0.0235
     37 H           1.4631    0.4665    0.0000 H       1  UNL1        0.0235
     38 H           5.0986   -0.2096    0.0000 H       1  UNL1        0.0580
     39 H           5.7598   -2.5228    0.0000 H       1  UNL1        0.0583
     40 H           6.8306    1.0304    0.0000 H       1  UNL1        0.0671
     41 H           7.9572   -1.7390    0.0000 H       1  UNL1        0.0670
     42 H           6.2746   -0.6265    0.0000 H       1  UNL1        0.0233
     43 H           6.5016    0.2204    0.0000 H       1  UNL1        0.0233
     44 H           5.6546    0.4474    0.0000 H       1  UNL1        0.0233
     45 H           8.2336   -0.3996    0.0000 H       1  UNL1        0.2105
     46 H           5.7526    2.4931    0.0000 H       1  UNL1        0.0605
     47 H           5.3540    1.8028    0.0000 H       1  UNL1        0.0605
     48 H           7.1256   -3.3404    0.0000 H       1  UNL1        0.0275
     49 H           7.9725   -3.5674    0.0000 H       1  UNL1        0.0275
     50 H           8.1995   -2.7204    0.0000 H       1  UNL1        0.0275
     51 H           7.6967    1.5304    0.0000 H       1  UNL1        0.2103
     52 H           8.9602   -1.5119    0.0000 H       1  UNL1        0.2103
     53 H           6.8306    3.0304    0.0000 H       1  UNL1        0.2098
@<TRIPOS>BOND
     1    13     1    1
     2     1    45    1
     3     2    14    2
     4    19     3    1
     5     3    51    1
     6    20     4    1
     7     4    52    1
     8     5    24    1
     9     5    53    1
    10     6     7    1
    11     6     8    1
    12     6     9    1
    13     6    26    1
    14     7     8    1
    15     7    10    1
    16     7    27    1
    17     8    15    1
    18     8    16    1
    19     9    14    1
    20     9    17    1
    21     9    28    1
    22    10    12    1
    23    10    29    1
    24    10    30    1
    25    11    12    1
    26    11    13    1
    27    11    14    1
    28    11    18    1
    29    12    21    1
    30    12    31    1
    31    13    19    1
    32    13    20    1
    33    15    33    1
    34    15    34    1
    35    15    35    1
    36    16    32    1
    37    16    36    1
    38    16    37    1
    39    17    22    2
    40    17    38    1
    41    18    23    2
    42    18    39    1
    43    19    22    1
    44    19    40    1
    45    20    23    1
    46    20    41    1
    47    21    42    1
    48    21    43    1
    49    21    44    1
    50    22    24    1
    51    23    25    1
    52    24    46    1
    53    24    47    1
    54    25    48    1
    55    25    49    1
    56    25    50    1
