@<TRIPOS>MOLECULE
IMPHY002130
 137 144 0 0 0
SMALL
GASTEIGER

@<TRIPOS>ATOM
      1 O           8.2902    2.8555    0.0000 O.2     1  UNL1       -0.4925
      2 O           6.8671   -5.3886    0.0000 O.3     1  UNL1       -0.3454
      3 O           5.1350   -5.3886    0.0000 O.3     1  UNL1       -0.3405
      4 O           6.8671   -7.3886    0.0000 O.3     1  UNL1       -0.3378
      5 O           5.1350   -8.3886    0.0000 O.3     1  UNL1       -0.3864
      6 O           8.7245    7.5093    0.0000 O.3     1  UNL1       -0.3484
      7 O           3.4030   -7.3886    0.0000 O.3     1  UNL1       -0.3865
      8 O           6.0010   -8.8886    0.0000 O.3     1  UNL1       -0.3405
      9 O           2.5369   -5.8886    0.0000 O.3     1  UNL1       -0.3924
     10 O           8.5991   -8.3886    0.0000 O.3     1  UNL1       -0.3841
     11 O           9.4242    9.0937    0.0000 O.3     1  UNL1       -0.3405
     12 O           8.5991  -10.3886    0.0000 O.3     1  UNL1       -0.3864
     13 O           6.8671  -11.3886    0.0000 O.3     1  UNL1       -0.3865
     14 O          10.5540    6.7013    0.0000 O.3     1  UNL1       -0.3841
     15 O          12.1685    7.8817    0.0000 O.3     1  UNL1       -0.3864
     16 O           4.2690   -9.8886    0.0000 O.3     1  UNL1       -0.3924
     17 O          11.9535    9.8701    0.0000 O.3     1  UNL1       -0.3865
     18 O           9.2092   11.0822    0.0000 O.3     1  UNL1       -0.3924
     19 C           7.7643    0.3117    0.0000 C.3     1  UNL1       -0.0285
     20 C           6.8963    0.8083    0.0000 C.3     1  UNL1       -0.0189
     21 C           7.7681   -0.6883    0.0000 C.3     1  UNL1       -0.0342
     22 C           6.9040   -1.1917    0.0000 C.3     1  UNL1       -0.0323
     23 C           6.8920   -2.2332    0.0000 C.3     1  UNL1       -0.0260
     24 C           7.1018    1.7809    0.0000 C.3     1  UNL1        0.0259
     25 C           6.0322    0.3050    0.0000 C.3     1  UNL1       -0.0464
     26 C           7.7920   -2.7575    0.0000 C.3     1  UNL1       -0.0330
     27 C           6.0361   -0.6950    0.0000 C.3     1  UNL1       -0.0489
     28 C           8.4987    0.9816    0.0000 C.3     1  UNL1       -0.0116
     29 C           8.0901    1.8878    0.0000 C.3     1  UNL1        0.1071
     30 C           8.6801   -1.1917    0.0000 C.3     1  UNL1       -0.0494
     31 C           8.6921   -2.2332    0.0000 C.3     1  UNL1       -0.0494
     32 C           5.9421   -2.7575    0.0000 C.3     1  UNL1       -0.0448
     33 C           6.0284    1.3050    0.0000 C.3     1  UNL1       -0.0586
     34 C           7.8046   -3.8424    0.0000 C.3     1  UNL1       -0.0232
     35 C           6.6995    2.6835    0.0000 C.2     1  UNL1       -0.0281
     36 C           6.0279   -1.7299    0.0000 C.3     1  UNL1       -0.0590
     37 C           5.9295   -3.8424    0.0000 C.3     1  UNL1       -0.0260
     38 C           6.8671   -4.3886    0.0000 C.3     1  UNL1        0.0621
     39 C           7.4324    3.3463    0.0000 C.2     1  UNL1        0.0975
     40 C           5.7211    2.8902    0.0000 C.3     1  UNL1       -0.0400
     41 C           7.3250    4.3405    0.0000 C.3     1  UNL1        0.0052
     42 C           8.1322    4.9307    0.0000 C.3     1  UNL1       -0.0415
     43 C           6.0010   -5.8886    0.0000 C.3     1  UNL1        0.1886
     44 C           6.0010   -6.8886    0.0000 C.3     1  UNL1        0.1406
     45 C           8.0247    5.9249    0.0000 C.3     1  UNL1       -0.0199
     46 C           5.1350   -7.3886    0.0000 C.3     1  UNL1        0.1144
     47 C           4.2690   -5.8886    0.0000 C.3     1  UNL1        0.1130
     48 C           4.2690   -6.8886    0.0000 C.3     1  UNL1        0.1119
     49 C           8.8320    6.5151    0.0000 C.3     1  UNL1        0.0533
     50 C           7.1100    6.3289    0.0000 C.3     1  UNL1       -0.0603
     51 C           3.4030   -5.3886    0.0000 C.3     1  UNL1        0.0730
     52 C           6.8671   -8.3886    0.0000 C.3     1  UNL1        0.1885
     53 C           7.7331   -8.8886    0.0000 C.3     1  UNL1        0.1341
     54 C           9.5317    8.0995    0.0000 C.3     1  UNL1        0.1879
     55 C           7.7331   -9.8886    0.0000 C.3     1  UNL1        0.1141
     56 C           6.0010   -9.8886    0.0000 C.3     1  UNL1        0.1130
     57 C           6.8671  -10.3886    0.0000 C.3     1  UNL1        0.1119
     58 C          10.4465    7.6955    0.0000 C.3     1  UNL1        0.1341
     59 C          11.2537    8.2857    0.0000 C.3     1  UNL1        0.1141
     60 C           5.1350  -10.3886    0.0000 C.3     1  UNL1        0.0730
     61 C          10.2315    9.6839    0.0000 C.3     1  UNL1        0.1130
     62 C          11.1462    9.2799    0.0000 C.3     1  UNL1        0.1119
     63 C          10.1240   10.6781    0.0000 C.3     1  UNL1        0.0730
     64 H           8.5426   -0.0301    0.0000 H       1  UNL1        0.0310
     65 H           8.4993   -0.2549    0.0000 H       1  UNL1        0.0306
     66 H           7.6385   -1.6195    0.0000 H       1  UNL1        0.0309
     67 H           6.2565    1.6914    0.0000 H       1  UNL1        0.0388
     68 H           5.8179    0.8868    0.0000 H       1  UNL1        0.0271
     69 H           5.4221    0.1950    0.0000 H       1  UNL1        0.0271
     70 H           8.5314   -3.1768    0.0000 H       1  UNL1        0.0307
     71 H           5.4251   -0.5897    0.0000 H       1  UNL1        0.0268
     72 H           5.8263   -1.2784    0.0000 H       1  UNL1        0.0268
     73 H           8.8661    0.4821    0.0000 H       1  UNL1        0.0304
     74 H           9.0340    1.2944    0.0000 H       1  UNL1        0.0304
     75 H           8.9350    1.9810    0.0000 H       1  UNL1        0.0739
     76 H           9.2921   -1.2907    0.0000 H       1  UNL1        0.0268
     77 H           8.8824   -0.6056    0.0000 H       1  UNL1        0.0268
     78 H           8.9079   -2.8145    0.0000 H       1  UNL1        0.0268
     79 H           9.3017   -2.1201    0.0000 H       1  UNL1        0.0268
     80 H           5.7398   -2.1714    0.0000 H       1  UNL1        0.0271
     81 H           5.3300   -2.8565    0.0000 H       1  UNL1        0.0271
     82 H           6.3363    1.8431    0.0000 H       1  UNL1        0.0235
     83 H           5.4902    1.6129    0.0000 H       1  UNL1        0.0235
     84 H           5.7204    0.7668    0.0000 H       1  UNL1        0.0235
     85 H           8.0204   -4.4237    0.0000 H       1  UNL1        0.0293
     86 H           8.4142   -3.7293    0.0000 H       1  UNL1        0.0293
     87 H           6.3400   -1.1942    0.0000 H       1  UNL1        0.0235
     88 H           5.4922   -1.4178    0.0000 H       1  UNL1        0.0235
     89 H           5.7158   -2.2656    0.0000 H       1  UNL1        0.0235
     90 H           5.3199   -3.7293    0.0000 H       1  UNL1        0.0290
     91 H           5.7137   -4.4237    0.0000 H       1  UNL1        0.0290
     92 H           7.4046   -4.6975    0.0000 H       1  UNL1        0.0597
     93 H           5.8492    3.4968    0.0000 H       1  UNL1        0.0276
     94 H           5.1145    3.0184    0.0000 H       1  UNL1        0.0276
     95 H           5.5929    2.2836    0.0000 H       1  UNL1        0.0276
     96 H           7.0515    4.8970    0.0000 H       1  UNL1        0.0343
     97 H           6.7295    4.1678    0.0000 H       1  UNL1        0.0343
     98 H           8.4057    4.3743    0.0000 H       1  UNL1        0.0273
     99 H           8.7277    5.1034    0.0000 H       1  UNL1        0.0273
    100 H           6.0010   -5.2686    0.0000 H       1  UNL1        0.0938
    101 H           6.0010   -7.5086    0.0000 H       1  UNL1        0.0675
    102 H           7.5242    5.5590    0.0000 H       1  UNL1        0.0320
    103 H           4.5981   -7.6986    0.0000 H       1  UNL1        0.0648
    104 H           4.2690   -5.2686    0.0000 H       1  UNL1        0.0647
    105 H           3.7320   -6.5786    0.0000 H       1  UNL1        0.0647
    106 H           9.1054    5.9587    0.0000 H       1  UNL1        0.0563
    107 H           9.4274    6.6878    0.0000 H       1  UNL1        0.0563
    108 H           7.3604    6.8961    0.0000 H       1  UNL1        0.0233
    109 H           6.5428    6.5794    0.0000 H       1  UNL1        0.0233
    110 H           6.8595    5.7618    0.0000 H       1  UNL1        0.0233
    111 H           3.8015   -4.9136    0.0000 H       1  UNL1        0.0584
    112 H           3.0044   -4.9136    0.0000 H       1  UNL1        0.0584
    113 H           7.4040   -8.0786    0.0000 H       1  UNL1        0.0938
    114 H           4.5981   -8.6986    0.0000 H       1  UNL1        0.2100
    115 H           3.4030   -8.0086    0.0000 H       1  UNL1        0.2100
    116 H           8.2700   -9.1986    0.0000 H       1  UNL1        0.0671
    117 H           8.9646    8.3500    0.0000 H       1  UNL1        0.0937
    118 H           2.0000   -5.5786    0.0000 H       1  UNL1        0.2095
    119 H           7.7331  -10.5086    0.0000 H       1  UNL1        0.0648
    120 H           5.4641   -9.5786    0.0000 H       1  UNL1        0.0647
    121 H           6.3301  -10.6986    0.0000 H       1  UNL1        0.0647
    122 H          11.0136    7.4450    0.0000 H       1  UNL1        0.0671
    123 H           9.1360   -8.6986    0.0000 H       1  UNL1        0.2101
    124 H          11.7542    8.6517    0.0000 H       1  UNL1        0.0648
    125 H           4.7365  -10.8635    0.0000 H       1  UNL1        0.0584
    126 H           5.5335  -10.8635    0.0000 H       1  UNL1        0.0584
    127 H           9.6643    9.9344    0.0000 H       1  UNL1        0.0647
    128 H          11.0796    9.8964    0.0000 H       1  UNL1        0.0647
    129 H           8.5991  -11.0086    0.0000 H       1  UNL1        0.2100
    130 H           6.3301  -11.6986    0.0000 H       1  UNL1        0.2100
    131 H          11.1211    6.4508    0.0000 H       1  UNL1        0.2101
    132 H          10.7426   10.6367    0.0000 H       1  UNL1        0.0584
    133 H          10.2722   11.2802    0.0000 H       1  UNL1        0.0584
    134 H          12.6690    8.2476    0.0000 H       1  UNL1        0.2100
    135 H           3.7320  -10.1986    0.0000 H       1  UNL1        0.2095
    136 H          11.8868   10.4865    0.0000 H       1  UNL1        0.2100
    137 H           9.1426   11.6986    0.0000 H       1  UNL1        0.2095
@<TRIPOS>BOND
     1     1    29    1
     2     1    39    1
     3    38     2    1
     4    43     2    1
     5     3    43    1
     6     3    47    1
     7    44     4    1
     8    52     4    1
     9    46     5    1
    10     5   114    1
    11     6    49    1
    12    54     6    1
    13    48     7    1
    14     7   115    1
    15     8    52    1
    16     8    56    1
    17     9    51    1
    18     9   118    1
    19    53    10    1
    20    10   123    1
    21    11    54    1
    22    11    61    1
    23    55    12    1
    24    12   129    1
    25    57    13    1
    26    13   130    1
    27    58    14    1
    28    14   131    1
    29    59    15    1
    30    15   134    1
    31    16    60    1
    32    16   135    1
    33    62    17    1
    34    17   136    1
    35    18    63    1
    36    18   137    1
    37    19    20    1
    38    19    21    1
    39    19    28    1
    40    19    64    1
    41    20    24    1
    42    20    25    1
    43    20    33    1
    44    21    22    1
    45    21    30    1
    46    21    65    1
    47    22    23    1
    48    22    27    1
    49    22    66    1
    50    23    26    1
    51    23    32    1
    52    23    36    1
    53    24    29    1
    54    24    35    1
    55    24    67    1
    56    25    27    1
    57    25    68    1
    58    25    69    1
    59    26    31    1
    60    26    34    1
    61    26    70    1
    62    27    71    1
    63    27    72    1
    64    28    29    1
    65    28    73    1
    66    28    74    1
    67    29    75    1
    68    30    31    1
    69    30    76    1
    70    30    77    1
    71    31    78    1
    72    31    79    1
    73    32    37    1
    74    32    80    1
    75    32    81    1
    76    33    82    1
    77    33    83    1
    78    33    84    1
    79    34    38    1
    80    34    85    1
    81    34    86    1
    82    35    39    2
    83    35    40    1
    84    36    87    1
    85    36    88    1
    86    36    89    1
    87    37    38    1
    88    37    90    1
    89    37    91    1
    90    38    92    1
    91    39    41    1
    92    40    93    1
    93    40    94    1
    94    40    95    1
    95    41    42    1
    96    41    96    1
    97    41    97    1
    98    42    45    1
    99    42    98    1
   100    42    99    1
   101    43    44    1
   102    43   100    1
   103    44    46    1
   104    44   101    1
   105    45    49    1
   106    45    50    1
   107    45   102    1
   108    46    48    1
   109    46   103    1
   110    47    48    1
   111    47    51    1
   112    47   104    1
   113    48   105    1
   114    49   106    1
   115    49   107    1
   116    50   108    1
   117    50   109    1
   118    50   110    1
   119    51   111    1
   120    51   112    1
   121    52    53    1
   122    52   113    1
   123    53    55    1
   124    53   116    1
   125    54    58    1
   126    54   117    1
   127    55    57    1
   128    55   119    1
   129    56    57    1
   130    56    60    1
   131    56   120    1
   132    57   121    1
   133    58    59    1
   134    58   122    1
   135    59    62    1
   136    59   124    1
   137    60   125    1
   138    60   126    1
   139    61    62    1
   140    61    63    1
   141    61   127    1
   142    62   128    1
   143    63   132    1
   144    63   133    1
