@<TRIPOS>MOLECULE
IMPHY002581
 40 41 0 0 0
SMALL
GASTEIGER

@<TRIPOS>ATOM
      1 O           5.3692    1.2488    0.0000 O.3     1  UNL1       -0.3848
      2 O           7.1260    1.1486    0.0000 O.3     1  UNL1       -0.3860
      3 O           2.1861   -0.2671    0.0000 O.2     1  UNL1       -0.2876
      4 C           5.3742    0.2488    0.0000 C.3     1  UNL1        0.1048
      5 C           6.3189    0.5582    0.0000 C.3     1  UNL1        0.0927
      6 C           5.3792   -0.7512    0.0000 C.3     1  UNL1        0.0122
      7 C           6.9065   -0.2436    0.0000 C.3     1  UNL1       -0.0209
      8 C           6.3269   -1.0512    0.0000 C.3     1  UNL1       -0.0411
      9 C           4.5893    0.8684    0.0000 C.3     1  UNL1        0.0081
     10 C           4.6005   -1.3786    0.0000 C.2     1  UNL1       -0.0631
     11 C           6.0068    1.5083    0.0000 C.3     1  UNL1       -0.0333
     12 C           3.6155    0.6410    0.0000 C.2     1  UNL1        0.0008
     13 C           3.6244   -1.1609    0.0000 C.2     1  UNL1       -0.0153
     14 C           4.8278   -2.3524    0.0000 C.3     1  UNL1       -0.0430
     15 C           3.1861   -0.2621    0.0000 C.2     1  UNL1        0.1821
     16 C           2.9881    1.4197    0.0000 C.2     1  UNL1       -0.0688
     17 C           2.0000    1.2657    0.0000 C.3     1  UNL1       -0.0434
     18 C           3.3488    2.3524    0.0000 C.3     1  UNL1       -0.0434
     19 H           5.4937   -1.3605    0.0000 H       1  UNL1        0.0375
     20 H           7.3694   -0.6560    0.0000 H       1  UNL1        0.0294
     21 H           7.3653    0.1734    0.0000 H       1  UNL1        0.0294
     22 H           6.0787   -1.6194    0.0000 H       1  UNL1        0.0273
     23 H           6.8658   -1.3578    0.0000 H       1  UNL1        0.0273
     24 H           5.0721    1.2574    0.0000 H       1  UNL1        0.0343
     25 H           4.3175    1.4256    0.0000 H       1  UNL1        0.0343
     26 H           6.5958    1.7018    0.0000 H       1  UNL1        0.0258
     27 H           5.8133    2.0973    0.0000 H       1  UNL1        0.0258
     28 H           5.4177    1.3148    0.0000 H       1  UNL1        0.0258
     29 H           4.8307    1.5561    0.0000 H       1  UNL1        0.2103
     30 H           7.6932    0.8983    0.0000 H       1  UNL1        0.2103
     31 H           3.2403   -1.6476    0.0000 H       1  UNL1        0.0655
     32 H           4.2241   -2.4934    0.0000 H       1  UNL1        0.0275
     33 H           4.9688   -2.9562    0.0000 H       1  UNL1        0.0275
     34 H           5.4316   -2.2114    0.0000 H       1  UNL1        0.0275
     35 H           1.9045    1.8783    0.0000 H       1  UNL1        0.0274
     36 H           1.3874    1.1703    0.0000 H       1  UNL1        0.0274
     37 H           2.0955    0.6531    0.0000 H       1  UNL1        0.0274
     38 H           3.9270    2.1288    0.0000 H       1  UNL1        0.0274
     39 H           3.5724    2.9306    0.0000 H       1  UNL1        0.0274
     40 H           2.7705    2.5760    0.0000 H       1  UNL1        0.0274
@<TRIPOS>BOND
     1     1     4    1
     2     1    29    1
     3     2     5    1
     4     2    30    1
     5     3    15    2
     6     4     5    1
     7     4     6    1
     8     4     9    1
     9     5     7    1
    10     5    11    1
    11     6     8    1
    12     6    10    1
    13     6    19    1
    14     7     8    1
    15     7    20    1
    16     7    21    1
    17     8    22    1
    18     8    23    1
    19     9    12    1
    20     9    24    1
    21     9    25    1
    22    10    13    2
    23    10    14    1
    24    11    26    1
    25    11    27    1
    26    11    28    1
    27    12    15    1
    28    12    16    2
    29    13    15    1
    30    13    31    1
    31    14    32    1
    32    14    33    1
    33    14    34    1
    34    16    17    1
    35    16    18    1
    36    17    35    1
    37    17    36    1
    38    17    37    1
    39    18    38    1
    40    18    39    1
    41    18    40    1
