@<TRIPOS>MOLECULE
IMPHY011663
 32 34 0 0 0
SMALL
GASTEIGER

@<TRIPOS>ATOM
      1 O           7.3424    0.8047    0.0000 O.3     1  UNL1       -0.4853
      2 O           9.9260    0.0000    0.0000 O.3     1  UNL1       -0.3855
      3 O           3.7702    1.0347    0.0000 O.2     1  UNL1       -0.4220
      4 O           2.0000    1.0241    0.0000 O.2     1  UNL1       -0.2452
      5 C           7.9260    0.0000    0.0000 C.3     1  UNL1        0.1322
      6 C           8.9260    0.0000    0.0000 C.3     1  UNL1        0.0974
      7 C           7.3424   -0.8047    0.0000 C.3     1  UNL1        0.0157
      8 C           6.3961   -0.5000    0.0000 C.ar    1  UNL1       -0.0013
      9 C           6.3961    0.5000    0.0000 C.ar    1  UNL1        0.1279
     10 C           8.9260   -1.0000    0.0000 C.3     1  UNL1       -0.0328
     11 C           8.9260    1.0000    0.0000 C.3     1  UNL1       -0.0328
     12 C           5.5301   -1.0000    0.0000 C.ar    1  UNL1       -0.0443
     13 C           5.5301    1.0000    0.0000 C.ar    1  UNL1        0.0234
     14 C           4.6641   -0.5000    0.0000 C.ar    1  UNL1        0.0181
     15 C           4.6641    0.5000    0.0000 C.ar    1  UNL1        0.1425
     16 C           3.7702   -1.0347    0.0000 C.ar    1  UNL1       -0.0443
     17 C           2.8641   -0.5208    0.0000 C.ar    1  UNL1        0.0236
     18 C           2.8641    0.5208    0.0000 C.ar    1  UNL1        0.3372
     19 H           8.3122    0.7572    0.0000 H       1  UNL1        0.0765
     20 H           7.0913   -1.3716    0.0000 H       1  UNL1        0.0351
     21 H           7.8798   -1.1140    0.0000 H       1  UNL1        0.0351
     22 H           8.3060   -1.0000    0.0000 H       1  UNL1        0.0258
     23 H           8.9260   -1.6200    0.0000 H       1  UNL1        0.0258
     24 H           9.5460   -1.0000    0.0000 H       1  UNL1        0.0258
     25 H           9.5460    1.0000    0.0000 H       1  UNL1        0.0258
     26 H           8.9260    1.6200    0.0000 H       1  UNL1        0.0258
     27 H           8.3060    1.0000    0.0000 H       1  UNL1        0.0258
     28 H           5.5301   -1.6200    0.0000 H       1  UNL1        0.0628
     29 H           5.5301    1.6200    0.0000 H       1  UNL1        0.0691
     30 H          10.2360   -0.5369    0.0000 H       1  UNL1        0.2103
     31 H           3.7773   -1.6546    0.0000 H       1  UNL1        0.0627
     32 H           2.3284   -0.8329    0.0000 H       1  UNL1        0.0689
@<TRIPOS>BOND
     1     1     5    1
     2     1     9    1
     3     2     6    1
     4     2    30    1
     5     3    15   ar
     6     3    18   ar
     7     4    18    2
     8     5     6    1
     9     5     7    1
    10     5    19    1
    11     6    10    1
    12     6    11    1
    13     7     8    1
    14     7    20    1
    15     7    21    1
    16     8     9   ar
    17     8    12   ar
    18     9    13   ar
    19    10    22    1
    20    10    23    1
    21    10    24    1
    22    11    25    1
    23    11    26    1
    24    11    27    1
    25    12    14   ar
    26    12    28    1
    27    13    15   ar
    28    13    29    1
    29    14    15   ar
    30    14    16   ar
    31    16    17   ar
    32    16    31    1
    33    17    18   ar
    34    17    32    1
