@<TRIPOS>MOLECULE
IMPHY007964
 150 156 0 0 0
SMALL
GASTEIGER

@<TRIPOS>ATOM
      1 O           6.0167    5.7118    0.0000 O.3     1  UNL1       -0.3909
      2 O           6.8671   -2.0117    0.0000 O.3     1  UNL1       -0.3448
      3 O           9.2738   -1.3418    0.0000 O.3     1  UNL1       -0.3481
      4 O           7.8378    7.4827    0.0000 O.3     1  UNL1       -0.3944
      5 O           5.1350   -2.0117    0.0000 O.3     1  UNL1       -0.3405
      6 O          10.7804   -2.1963    0.0000 O.3     1  UNL1       -0.3405
      7 O           6.8671   -4.0117    0.0000 O.3     1  UNL1       -0.3378
      8 O          10.2604    0.3979    0.0000 O.3     1  UNL1       -0.3841
      9 O           5.1350   -5.0117    0.0000 O.3     1  UNL1       -0.3864
     10 O           3.4030   -4.0117    0.0000 O.3     1  UNL1       -0.3865
     11 O          12.2603    0.4133    0.0000 O.3     1  UNL1       -0.3864
     12 O          13.2736   -1.3110    0.0000 O.3     1  UNL1       -0.3865
     13 O           6.0010   -5.5117    0.0000 O.3     1  UNL1       -0.3405
     14 O           2.5369   -2.5117    0.0000 O.3     1  UNL1       -0.3924
     15 O          12.3309    6.5820    0.0000 O.3     1  UNL1       -0.3907
     16 O          13.2870   -3.0430    0.0000 O.3     1  UNL1       -0.3924
     17 O           8.5991   -5.0117    0.0000 O.3     1  UNL1       -0.3841
     18 O           8.5991   -7.0117    0.0000 O.3     1  UNL1       -0.3864
     19 O           6.8671   -8.0117    0.0000 O.3     1  UNL1       -0.3865
     20 O           4.2690   -6.5117    0.0000 O.3     1  UNL1       -0.3924
     21 C           7.7628    2.5542    0.0000 C.3     1  UNL1       -0.0230
     22 C           6.8948    2.0575    0.0000 C.3     1  UNL1       -0.0294
     23 C           7.7829    3.5956    0.0000 C.3     1  UNL1       -0.0212
     24 C           6.8910    1.0575    0.0000 C.3     1  UNL1       -0.0252
     25 C           7.7551    0.5542    0.0000 C.3     1  UNL1       -0.0255
     26 C           6.8869    4.1268    0.0000 C.3     1  UNL1       -0.0085
     27 C           8.6269    2.0508    0.0000 C.3     1  UNL1       -0.0466
     28 C           5.9868    2.5678    0.0000 C.3     1  UNL1       -0.0488
     29 C           8.6230    1.0508    0.0000 C.3     1  UNL1       -0.0485
     30 C           7.7671   -0.4874    0.0000 C.3     1  UNL1        0.0210
     31 C           5.9828    3.6095    0.0000 C.3     1  UNL1       -0.0470
     32 C           8.7368    4.1125    0.0000 C.3     1  UNL1       -0.0461
     33 C           5.9790    0.5542    0.0000 C.3     1  UNL1       -0.0447
     34 C           6.8827    5.2118    0.0000 C.3     1  UNL1        0.0663
     35 C           7.8244    5.7507    0.0000 C.3     1  UNL1        0.0203
     36 C           8.7483    2.7240    0.0000 C.3     1  UNL1       -0.0588
     37 C           8.7577    5.1973    0.0000 C.3     1  UNL1       -0.0424
     38 C           6.8671   -1.0117    0.0000 C.3     1  UNL1        0.0695
     39 C           8.7656    3.4106    0.0000 C.3     1  UNL1       -0.0587
     40 C           6.0269    1.5608    0.0000 C.3     1  UNL1       -0.0590
     41 C           5.9670   -0.4874    0.0000 C.3     1  UNL1       -0.0254
     42 C           8.7671   -0.4797    0.0000 C.3     1  UNL1        0.0588
     43 C           8.2738   -1.3495    0.0000 C.3     1  UNL1       -0.0548
     44 C           8.3311    6.6128    0.0000 C.3     1  UNL1       -0.0395
     45 C           7.3311    6.6205    0.0000 C.3     1  UNL1        0.0522
     46 C           9.3310    6.6051    0.0000 C.3     1  UNL1       -0.0338
     47 C           6.0010   -2.5117    0.0000 C.3     1  UNL1        0.1886
     48 C          10.2737   -1.3341    0.0000 C.3     1  UNL1        0.1879
     49 C           6.0010   -3.5117    0.0000 C.3     1  UNL1        0.1406
     50 C           9.8377    7.4672    0.0000 C.2     1  UNL1       -0.0829
     51 C          10.7670   -0.4643    0.0000 C.3     1  UNL1        0.1341
     52 C           5.1350   -4.0117    0.0000 C.3     1  UNL1        0.1144
     53 C           4.2690   -2.5117    0.0000 C.3     1  UNL1        0.1130
     54 C           4.2690   -3.5117    0.0000 C.3     1  UNL1        0.1119
     55 C          10.8377    7.4595    0.0000 C.2     1  UNL1       -0.0515
     56 C          11.7670   -0.4566    0.0000 C.3     1  UNL1        0.1141
     57 C          11.7804   -2.1886    0.0000 C.3     1  UNL1        0.1130
     58 C          12.2737   -1.3187    0.0000 C.3     1  UNL1        0.1119
     59 C           3.4030   -2.0117    0.0000 C.3     1  UNL1        0.0730
     60 C           6.8671   -5.0117    0.0000 C.3     1  UNL1        0.1885
     61 C          11.3310    6.5897    0.0000 C.3     1  UNL1        0.0650
     62 C          11.3443    8.3217    0.0000 C.3     1  UNL1       -0.0416
     63 C          12.2870   -3.0507    0.0000 C.3     1  UNL1        0.0730
     64 C           7.7331   -5.5117    0.0000 C.3     1  UNL1        0.1341
     65 C           7.7331   -6.5117    0.0000 C.3     1  UNL1        0.1141
     66 C           6.0010   -6.5117    0.0000 C.3     1  UNL1        0.1130
     67 C           6.8671   -7.0117    0.0000 C.3     1  UNL1        0.1119
     68 C           5.1350   -7.0117    0.0000 C.3     1  UNL1        0.0730
     69 H           7.6293    1.6297    0.0000 H       1  UNL1        0.0312
     70 H           8.4928    0.1320    0.0000 H       1  UNL1        0.0313
     71 H           6.1508    4.5518    0.0000 H       1  UNL1        0.0331
     72 H           9.2370    1.9408    0.0000 H       1  UNL1        0.0271
     73 H           8.8412    2.6326    0.0000 H       1  UNL1        0.0271
     74 H           5.3755    2.6716    0.0000 H       1  UNL1        0.0268
     75 H           5.7800    1.9834    0.0000 H       1  UNL1        0.0268
     76 H           8.8328    0.4674    0.0000 H       1  UNL1        0.0268
     77 H           9.2340    1.1561    0.0000 H       1  UNL1        0.0268
     78 H           5.7715    4.1924    0.0000 H       1  UNL1        0.0269
     79 H           5.3724    3.5010    0.0000 H       1  UNL1        0.0269
     80 H           8.9346    3.5249    0.0000 H       1  UNL1        0.0271
     81 H           9.3496    4.2068    0.0000 H       1  UNL1        0.0271
     82 H           5.7768    1.1402    0.0000 H       1  UNL1        0.0271
     83 H           5.3670    0.4551    0.0000 H       1  UNL1        0.0271
     84 H           6.3464    4.9008    0.0000 H       1  UNL1        0.0602
     85 H           8.8536    2.1130    0.0000 H       1  UNL1        0.0235
     86 H           9.3592    2.8293    0.0000 H       1  UNL1        0.0235
     87 H           8.6430    3.3350    0.0000 H       1  UNL1        0.0235
     88 H           9.3664    5.0795    0.0000 H       1  UNL1        0.0272
     89 H           8.9780    5.7769    0.0000 H       1  UNL1        0.0272
     90 H           7.4046   -1.3206    0.0000 H       1  UNL1        0.0603
     91 H           8.6509    2.8013    0.0000 H       1  UNL1        0.0235
     92 H           9.3749    3.2958    0.0000 H       1  UNL1        0.0235
     93 H           8.8803    4.0199    0.0000 H       1  UNL1        0.0235
     94 H           6.3390    2.0966    0.0000 H       1  UNL1        0.0235
     95 H           5.4912    1.8729    0.0000 H       1  UNL1        0.0235
     96 H           5.7148    1.0251    0.0000 H       1  UNL1        0.0235
     97 H           5.3574   -0.3742    0.0000 H       1  UNL1        0.0290
     98 H           5.7512   -1.0686    0.0000 H       1  UNL1        0.0290
     99 H           9.3480   -0.2631    0.0000 H       1  UNL1        0.0567
    100 H           8.6547    0.1300    0.0000 H       1  UNL1        0.0567
    101 H           7.7393   -1.6637    0.0000 H       1  UNL1        0.0237
    102 H           8.5879   -1.8841    0.0000 H       1  UNL1        0.0237
    103 H           8.8083   -1.0354    0.0000 H       1  UNL1        0.0237
    104 H           8.4434    7.2225    0.0000 H       1  UNL1        0.0275
    105 H           7.7501    6.8293    0.0000 H       1  UNL1        0.0275
    106 H           6.8592    7.0227    0.0000 H       1  UNL1        0.0563
    107 H           6.8531    6.2257    0.0000 H       1  UNL1        0.0563
    108 H           5.4797    5.4018    0.0000 H       1  UNL1        0.2098
    109 H           9.2187    5.9954    0.0000 H       1  UNL1        0.0308
    110 H           9.9120    6.3886    0.0000 H       1  UNL1        0.0308
    111 H           6.0010   -1.8917    0.0000 H       1  UNL1        0.0938
    112 H           7.5319    8.0220    0.0000 H       1  UNL1        0.2094
    113 H           9.9679   -1.8734    0.0000 H       1  UNL1        0.0937
    114 H           6.5380   -3.2017    0.0000 H       1  UNL1        0.0675
    115 H           9.5318    8.0066    0.0000 H       1  UNL1        0.0572
    116 H          11.0729    0.0750    0.0000 H       1  UNL1        0.0671
    117 H           5.6720   -4.3217    0.0000 H       1  UNL1        0.0648
    118 H           4.2690   -1.8917    0.0000 H       1  UNL1        0.0647
    119 H           3.7320   -3.2017    0.0000 H       1  UNL1        0.0647
    120 H          12.3870   -0.4518    0.0000 H       1  UNL1        0.0648
    121 H          11.4745   -2.7279    0.0000 H       1  UNL1        0.0647
    122 H          12.5878   -1.8532    0.0000 H       1  UNL1        0.0647
    123 H           3.8015   -1.5367    0.0000 H       1  UNL1        0.0584
    124 H           3.0044   -1.5367    0.0000 H       1  UNL1        0.0584
    125 H           7.4040   -4.7017    0.0000 H       1  UNL1        0.0938
    126 H          10.5662    0.9372    0.0000 H       1  UNL1        0.2101
    127 H           4.5981   -5.3217    0.0000 H       1  UNL1        0.2100
    128 H          10.7467    6.3821    0.0000 H       1  UNL1        0.0604
    129 H          11.4339    5.9783    0.0000 H       1  UNL1        0.0604
    130 H          11.8789    8.0076    0.0000 H       1  UNL1        0.0275
    131 H          11.6585    8.8562    0.0000 H       1  UNL1        0.0275
    132 H          10.8098    8.6358    0.0000 H       1  UNL1        0.0275
    133 H           3.4030   -4.6317    0.0000 H       1  UNL1        0.2100
    134 H          11.7061   -3.2672    0.0000 H       1  UNL1        0.0584
    135 H          12.3994   -3.6604    0.0000 H       1  UNL1        0.0584
    136 H          12.8803    0.4181    0.0000 H       1  UNL1        0.2100
    137 H           8.2700   -5.8217    0.0000 H       1  UNL1        0.0671
    138 H          13.5795   -0.7717    0.0000 H       1  UNL1        0.2100
    139 H           2.0000   -2.2017    0.0000 H       1  UNL1        0.2095
    140 H           7.7331   -7.1317    0.0000 H       1  UNL1        0.0648
    141 H           5.4641   -6.2017    0.0000 H       1  UNL1        0.0647
    142 H          12.6368    6.0427    0.0000 H       1  UNL1        0.2098
    143 H           6.3301   -7.3217    0.0000 H       1  UNL1        0.0647
    144 H          13.6011   -3.5775    0.0000 H       1  UNL1        0.2095
    145 H           9.1360   -5.3217    0.0000 H       1  UNL1        0.2101
    146 H           4.7365   -7.4866    0.0000 H       1  UNL1        0.0584
    147 H           5.5335   -7.4866    0.0000 H       1  UNL1        0.0584
    148 H           8.5991   -7.6317    0.0000 H       1  UNL1        0.2100
    149 H           6.3301   -8.3217    0.0000 H       1  UNL1        0.2100
    150 H           3.7320   -6.8217    0.0000 H       1  UNL1        0.2095
@<TRIPOS>BOND
     1    34     1    1
     2     1   108    1
     3    38     2    1
     4    47     2    1
     5     3    42    1
     6    48     3    1
     7     4    45    1
     8     4   112    1
     9     5    47    1
    10     5    53    1
    11     6    48    1
    12     6    57    1
    13    49     7    1
    14    60     7    1
    15    51     8    1
    16     8   126    1
    17    52     9    1
    18     9   127    1
    19    54    10    1
    20    10   133    1
    21    56    11    1
    22    11   136    1
    23    58    12    1
    24    12   138    1
    25    13    60    1
    26    13    66    1
    27    14    59    1
    28    14   139    1
    29    15    61    1
    30    15   142    1
    31    16    63    1
    32    16   144    1
    33    64    17    1
    34    17   145    1
    35    65    18    1
    36    18   148    1
    37    67    19    1
    38    19   149    1
    39    20    68    1
    40    20   150    1
    41    21    22    1
    42    21    23    1
    43    21    27    1
    44    21    36    1
    45    22    24    1
    46    22    28    1
    47    22    69    1
    48    23    26    1
    49    23    32    1
    50    23    39    1
    51    24    25    1
    52    24    33    1
    53    24    40    1
    54    25    29    1
    55    25    30    1
    56    25    70    1
    57    26    31    1
    58    26    34    1
    59    26    71    1
    60    27    29    1
    61    27    72    1
    62    27    73    1
    63    28    31    1
    64    28    74    1
    65    28    75    1
    66    29    76    1
    67    29    77    1
    68    30    38    1
    69    30    42    1
    70    30    43    1
    71    31    78    1
    72    31    79    1
    73    32    37    1
    74    32    80    1
    75    32    81    1
    76    33    41    1
    77    33    82    1
    78    33    83    1
    79    34    35    1
    80    34    84    1
    81    35    37    1
    82    35    44    1
    83    35    45    1
    84    36    85    1
    85    36    86    1
    86    36    87    1
    87    37    88    1
    88    37    89    1
    89    38    41    1
    90    38    90    1
    91    39    91    1
    92    39    92    1
    93    39    93    1
    94    40    94    1
    95    40    95    1
    96    40    96    1
    97    41    97    1
    98    41    98    1
    99    42    99    1
   100    42   100    1
   101    43   101    1
   102    43   102    1
   103    43   103    1
   104    44    46    1
   105    44   104    1
   106    44   105    1
   107    45   106    1
   108    45   107    1
   109    46    50    1
   110    46   109    1
   111    46   110    1
   112    47    49    1
   113    47   111    1
   114    48    51    1
   115    48   113    1
   116    49    52    1
   117    49   114    1
   118    50    55    2
   119    50   115    1
   120    51    56    1
   121    51   116    1
   122    52    54    1
   123    52   117    1
   124    53    54    1
   125    53    59    1
   126    53   118    1
   127    54   119    1
   128    55    61    1
   129    55    62    1
   130    56    58    1
   131    56   120    1
   132    57    58    1
   133    57    63    1
   134    57   121    1
   135    58   122    1
   136    59   123    1
   137    59   124    1
   138    60    64    1
   139    60   125    1
   140    61   128    1
   141    61   129    1
   142    62   130    1
   143    62   131    1
   144    62   132    1
   145    63   134    1
   146    63   135    1
   147    64    65    1
   148    64   137    1
   149    65    67    1
   150    65   140    1
   151    66    67    1
   152    66    68    1
   153    66   141    1
   154    67   143    1
   155    68   146    1
   156    68   147    1
