@<TRIPOS>MOLECULE
IMPHY012492
 81 85 0 0 0
SMALL
GASTEIGER

@<TRIPOS>ATOM
      1 O          12.2545    2.8304    0.0000 O.2     1  UNL1       -0.2971
      2 O           2.6200   -1.6333    0.0000 O.3     1  UNL1       -0.4802
      3 O           2.6400    0.0987    0.0000 O.2     1  UNL1       -0.2504
      4 C           7.7806   -0.8139    0.0000 C.3     1  UNL1       -0.0231
      5 C           6.9146   -0.3139    0.0000 C.3     1  UNL1       -0.0230
      6 C           8.6466   -0.3139    0.0000 C.3     1  UNL1       -0.0294
      7 C           8.6466    0.6861    0.0000 C.3     1  UNL1       -0.0254
      8 C           6.0046   -0.8208    0.0000 C.3     1  UNL1       -0.0287
      9 C           9.5406    1.2207    0.0000 C.3     1  UNL1       -0.0289
     10 C           5.9966   -1.8624    0.0000 C.3     1  UNL1       -0.0286
     11 C           6.9146    0.6861    0.0000 C.3     1  UNL1       -0.0463
     12 C           7.7806    1.1861    0.0000 C.3     1  UNL1       -0.0466
     13 C           7.7967   -1.8554    0.0000 C.3     1  UNL1       -0.0463
     14 C          10.4467    0.7069    0.0000 C.3     1  UNL1       -0.0195
     15 C           9.5406   -0.8486    0.0000 C.3     1  UNL1       -0.0487
     16 C           6.8986   -2.3832    0.0000 C.3     1  UNL1       -0.0468
     17 C          10.4467   -0.3348    0.0000 C.3     1  UNL1       -0.0464
     18 C           5.0778   -0.2567    0.0000 C.3     1  UNL1       -0.0337
     19 C           8.6466   -1.3139    0.0000 C.3     1  UNL1       -0.0588
     20 C           6.0486    0.1861    0.0000 C.3     1  UNL1       -0.0588
     21 C           5.0611   -2.4121    0.0000 C.3     1  UNL1       -0.0464
     22 C           8.6466    1.6861    0.0000 C.3     1  UNL1       -0.0590
     23 C           9.5155    2.3054    0.0000 C.3     1  UNL1       -0.0425
     24 C           4.1299   -0.7846    0.0000 C.3     1  UNL1        0.0651
     25 C          11.3904    1.2421    0.0000 C.3     1  UNL1        0.0203
     26 C           4.1215   -1.8696    0.0000 C.3     1  UNL1       -0.0370
     27 C           5.9889   -2.8624    0.0000 C.3     1  UNL1       -0.0593
     28 C          11.3165    0.2136    0.0000 C.3     1  UNL1       -0.0587
     29 C          10.4467    2.8624    0.0000 C.3     1  UNL1        0.0064
     30 C          11.3904    2.3271    0.0000 C.2     1  UNL1        0.1367
     31 C           3.6399    0.0871    0.0000 C.3     1  UNL1       -0.0494
     32 C          12.2545    0.7388    0.0000 C.3     1  UNL1       -0.0552
     33 C           3.1299   -0.7731    0.0000 C.2     1  UNL1        0.3107
     34 H           9.1860   -0.0081    0.0000 H       1  UNL1        0.0312
     35 H           6.5379   -1.1370    0.0000 H       1  UNL1        0.0312
     36 H          10.0727    1.5390    0.0000 H       1  UNL1        0.0312
     37 H           6.7025    1.2687    0.0000 H       1  UNL1        0.0271
     38 H           6.3040    0.5784    0.0000 H       1  UNL1        0.0271
     39 H           8.1792    1.6610    0.0000 H       1  UNL1        0.0271
     40 H           7.3821    1.6610    0.0000 H       1  UNL1        0.0271
     41 H           8.0147   -2.4358    0.0000 H       1  UNL1        0.0271
     42 H           8.4058   -1.7399    0.0000 H       1  UNL1        0.0271
     43 H           9.1360   -1.3184    0.0000 H       1  UNL1        0.0268
     44 H           9.9342   -1.3276    0.0000 H       1  UNL1        0.0268
     45 H           6.5013   -2.8592    0.0000 H       1  UNL1        0.0271
     46 H           7.2996   -2.8561    0.0000 H       1  UNL1        0.0271
     47 H          10.6557   -0.9184    0.0000 H       1  UNL1        0.0271
     48 H          11.0575   -0.2287    0.0000 H       1  UNL1        0.0271
     49 H           5.4860    0.2100    0.0000 H       1  UNL1        0.0279
     50 H           4.6878    0.2253    0.0000 H       1  UNL1        0.0279
     51 H           8.3366   -1.8509    0.0000 H       1  UNL1        0.0235
     52 H           9.1836   -1.6239    0.0000 H       1  UNL1        0.0235
     53 H           8.9566   -0.7770    0.0000 H       1  UNL1        0.0235
     54 H           6.3586    0.7230    0.0000 H       1  UNL1        0.0235
     55 H           5.5116    0.4961    0.0000 H       1  UNL1        0.0235
     56 H           5.7386   -0.3509    0.0000 H       1  UNL1        0.0235
     57 H           4.6638   -2.8881    0.0000 H       1  UNL1        0.0271
     58 H           5.4621   -2.8850    0.0000 H       1  UNL1        0.0271
     59 H           9.2666    1.6861    0.0000 H       1  UNL1        0.0235
     60 H           8.6466    2.3061    0.0000 H       1  UNL1        0.0235
     61 H           8.0266    1.6861    0.0000 H       1  UNL1        0.0235
     62 H           9.2930    2.8841    0.0000 H       1  UNL1        0.0272
     63 H           8.9073    2.1852    0.0000 H       1  UNL1        0.0272
     64 H          11.9280    1.5511    0.0000 H       1  UNL1        0.0380
     65 H           3.5115   -1.7588    0.0000 H       1  UNL1        0.0276
     66 H           3.9080   -2.4517    0.0000 H       1  UNL1        0.0276
     67 H           5.3689   -2.8576    0.0000 H       1  UNL1        0.0235
     68 H           5.9841   -3.4823    0.0000 H       1  UNL1        0.0235
     69 H           6.6088   -2.8671    0.0000 H       1  UNL1        0.0235
     70 H          11.0107   -0.3257    0.0000 H       1  UNL1        0.0235
     71 H          11.8558   -0.0923    0.0000 H       1  UNL1        0.0235
     72 H          11.6224    0.7529    0.0000 H       1  UNL1        0.0235
     73 H          10.8403    3.3414    0.0000 H       1  UNL1        0.0342
     74 H          10.0421    3.3321    0.0000 H       1  UNL1        0.0342
     75 H           4.1804    0.3909    0.0000 H       1  UNL1        0.0240
     76 H           3.3362    0.6276    0.0000 H       1  UNL1        0.0240
     77 H           3.0994   -0.2167    0.0000 H       1  UNL1        0.0240
     78 H          11.9425    0.2030    0.0000 H       1  UNL1        0.0237
     79 H          12.7903    0.4267    0.0000 H       1  UNL1        0.0237
     80 H          12.5666    1.2745    0.0000 H       1  UNL1        0.0237
     81 H           2.0000   -1.6261    0.0000 H       1  UNL1        0.2951
@<TRIPOS>BOND
     1     1    30    2
     2     2    33    1
     3     2    81    1
     4     3    33    2
     5     4     5    1
     6     4     6    1
     7     4    13    1
     8     4    19    1
     9     5     8    1
    10     5    11    1
    11     5    20    1
    12     6     7    1
    13     6    15    1
    14     6    34    1
    15     7     9    1
    16     7    12    1
    17     7    22    1
    18     8    10    1
    19     8    18    1
    20     8    35    1
    21     9    14    1
    22     9    23    1
    23     9    36    1
    24    10    16    1
    25    10    21    1
    26    10    27    1
    27    11    12    1
    28    11    37    1
    29    11    38    1
    30    12    39    1
    31    12    40    1
    32    13    16    1
    33    13    41    1
    34    13    42    1
    35    14    17    1
    36    14    25    1
    37    14    28    1
    38    15    17    1
    39    15    43    1
    40    15    44    1
    41    16    45    1
    42    16    46    1
    43    17    47    1
    44    17    48    1
    45    18    24    1
    46    18    49    1
    47    18    50    1
    48    19    51    1
    49    19    52    1
    50    19    53    1
    51    20    54    1
    52    20    55    1
    53    20    56    1
    54    21    26    1
    55    21    57    1
    56    21    58    1
    57    22    59    1
    58    22    60    1
    59    22    61    1
    60    23    29    1
    61    23    62    1
    62    23    63    1
    63    24    26    1
    64    24    31    1
    65    24    33    1
    66    25    30    1
    67    25    32    1
    68    25    64    1
    69    26    65    1
    70    26    66    1
    71    27    67    1
    72    27    68    1
    73    27    69    1
    74    28    70    1
    75    28    71    1
    76    28    72    1
    77    29    30    1
    78    29    73    1
    79    29    74    1
    80    31    75    1
    81    31    76    1
    82    31    77    1
    83    32    78    1
    84    32    79    1
    85    32    80    1
