@<TRIPOS>MOLECULE
IMPHY010544
 80 84 0 0 0
SMALL
GASTEIGER

@<TRIPOS>ATOM
      1 O          11.3108   -1.7219    0.0000 O.3     1  UNL1       -0.3905
      2 O           2.5393    0.3200    0.0000 O.3     1  UNL1       -0.4802
      3 O           3.3938   -1.1867    0.0000 O.2     1  UNL1       -0.2504
      4 O          10.9767    0.2706    0.0000 O.2     1  UNL1       -0.3006
      5 C           6.9373   -1.2142    0.0000 C.3     1  UNL1       -0.0230
      6 C           6.0713   -0.7142    0.0000 C.3     1  UNL1       -0.0232
      7 C           7.8034   -0.7142    0.0000 C.3     1  UNL1       -0.0287
      8 C           8.7134   -1.2210    0.0000 C.3     1  UNL1       -0.0137
      9 C           6.0713    0.2858    0.0000 C.3     1  UNL1       -0.0307
     10 C           8.7214   -2.2626    0.0000 C.3     1  UNL1       -0.0271
     11 C           5.1774    0.8205    0.0000 C.3     1  UNL1       -0.0154
     12 C           6.9213   -2.2557    0.0000 C.3     1  UNL1       -0.0466
     13 C           7.8034    0.2858    0.0000 C.3     1  UNL1       -0.0489
     14 C           9.7094   -2.5725    0.0000 C.3     1  UNL1       -0.0049
     15 C           9.6965   -0.8960    0.0000 C.3     1  UNL1        0.0468
     16 C           4.2713    0.3066    0.0000 C.3     1  UNL1        0.0712
     17 C           6.9373    0.7858    0.0000 C.3     1  UNL1       -0.0491
     18 C           5.1774   -1.2489    0.0000 C.3     1  UNL1       -0.0458
     19 C           7.8193   -2.7835    0.0000 C.3     1  UNL1       -0.0486
     20 C          10.3109   -1.7296    0.0000 C.3     1  UNL1        0.0703
     21 C           4.2713   -0.7350    0.0000 C.3     1  UNL1       -0.0364
     22 C           4.9673    1.8344    0.0000 C.3     1  UNL1       -0.0163
     23 C           6.2945   -1.9802    0.0000 C.3     1  UNL1       -0.0588
     24 C           5.7294   -1.6539    0.0000 C.3     1  UNL1       -0.0588
     25 C           8.7057   -0.2211    0.0000 C.3     1  UNL1       -0.0583
     26 C           3.5090    1.0074    0.0000 C.3     1  UNL1       -0.0364
     27 C           3.9382    1.9497    0.0000 C.3     1  UNL1       -0.0452
     28 C          10.5240   -3.1526    0.0000 C.3     1  UNL1       -0.0572
     29 C           9.4094   -3.5264    0.0000 C.3     1  UNL1       -0.0572
     30 C           3.4014   -0.1867    0.0000 C.2     1  UNL1        0.3112
     31 C           9.9998    0.0568    0.0000 C.2     1  UNL1        0.1264
     32 C           5.6408    2.5735    0.0000 C.2     1  UNL1       -0.0763
     33 C           5.3375    3.5264    0.0000 C.3     1  UNL1       -0.0438
     34 C           6.6177    2.3598    0.0000 C.2     1  UNL1       -0.0994
     35 H           8.5362   -0.2835    0.0000 H       1  UNL1        0.0312
     36 H           6.8074   -0.1392    0.0000 H       1  UNL1        0.0309
     37 H           8.8146   -3.1075    0.0000 H       1  UNL1        0.0312
     38 H           5.8701    1.3130    0.0000 H       1  UNL1        0.0320
     39 H           6.3121   -2.1402    0.0000 H       1  UNL1        0.0271
     40 H           6.7032   -2.8361    0.0000 H       1  UNL1        0.0271
     41 H           8.4140    0.1781    0.0000 H       1  UNL1        0.0268
     42 H           8.0154    0.8684    0.0000 H       1  UNL1        0.0268
     43 H          10.3082   -0.7951    0.0000 H       1  UNL1        0.0405
     44 H           7.3359    1.2607    0.0000 H       1  UNL1        0.0268
     45 H           6.5388    1.2607    0.0000 H       1  UNL1        0.0268
     46 H           4.7838   -1.7279    0.0000 H       1  UNL1        0.0271
     47 H           5.5820   -1.7187    0.0000 H       1  UNL1        0.0271
     48 H           7.4184   -3.2564    0.0000 H       1  UNL1        0.0268
     49 H           8.2166   -3.2594    0.0000 H       1  UNL1        0.0268
     50 H          10.5968   -2.2797    0.0000 H       1  UNL1        0.0606
     51 H           3.6604   -0.6289    0.0000 H       1  UNL1        0.0276
     52 H           4.0622   -1.3187    0.0000 H       1  UNL1        0.0276
     53 H           5.5652    1.6706    0.0000 H       1  UNL1        0.0348
     54 H           5.8196   -1.5817    0.0000 H       1  UNL1        0.0235
     55 H           5.8960   -2.4552    0.0000 H       1  UNL1        0.0235
     56 H           6.7695   -2.3788    0.0000 H       1  UNL1        0.0235
     57 H           5.1468   -1.4419    0.0000 H       1  UNL1        0.0235
     58 H           5.5174   -2.2366    0.0000 H       1  UNL1        0.0235
     59 H           6.3120   -1.8659    0.0000 H       1  UNL1        0.0235
     60 H           9.3256   -0.2163    0.0000 H       1  UNL1        0.0235
     61 H           8.7009    0.3989    0.0000 H       1  UNL1        0.0235
     62 H           8.0857   -0.2259    0.0000 H       1  UNL1        0.0235
     63 H           2.9749    1.3223    0.0000 H       1  UNL1        0.0276
     64 H           3.1397    0.5093    0.0000 H       1  UNL1        0.0276
     65 H           4.0716    2.5551    0.0000 H       1  UNL1        0.0271
     66 H           3.3501    2.1460    0.0000 H       1  UNL1        0.0271
     67 H          10.1643   -3.6576    0.0000 H       1  UNL1        0.0236
     68 H          11.0290   -3.5123    0.0000 H       1  UNL1        0.0236
     69 H          10.8836   -2.6476    0.0000 H       1  UNL1        0.0236
     70 H           8.8180   -3.3404    0.0000 H       1  UNL1        0.0236
     71 H           9.2234   -4.1178    0.0000 H       1  UNL1        0.0236
     72 H          10.0008   -3.7124    0.0000 H       1  UNL1        0.0236
     73 H           9.5822    0.5151    0.0000 H       1  UNL1        0.1030
     74 H          11.6250   -2.2564    0.0000 H       1  UNL1        0.2098
     75 H           5.9283    3.7145    0.0000 H       1  UNL1        0.0274
     76 H           5.1494    4.1172    0.0000 H       1  UNL1        0.0274
     77 H           4.7467    3.3383    0.0000 H       1  UNL1        0.0274
     78 H           2.0000    0.0141    0.0000 H       1  UNL1        0.2951
     79 H           6.8058    1.7690    0.0000 H       1  UNL1        0.0534
     80 H           7.0353    2.8180    0.0000 H       1  UNL1        0.0534
@<TRIPOS>BOND
     1    20     1    1
     2     1    74    1
     3     2    30    1
     4     2    78    1
     5     3    30    2
     6     4    31    2
     7     5     6    1
     8     5     7    1
     9     5    12    1
    10     5    23    1
    11     6     9    1
    12     6    18    1
    13     6    24    1
    14     7     8    1
    15     7    13    1
    16     7    35    1
    17     8    10    1
    18     8    15    1
    19     8    25    1
    20     9    11    1
    21     9    17    1
    22     9    36    1
    23    10    14    1
    24    10    19    1
    25    10    37    1
    26    11    16    1
    27    11    22    1
    28    11    38    1
    29    12    19    1
    30    12    39    1
    31    12    40    1
    32    13    17    1
    33    13    41    1
    34    13    42    1
    35    14    20    1
    36    14    28    1
    37    14    29    1
    38    15    20    1
    39    15    31    1
    40    15    43    1
    41    16    21    1
    42    16    26    1
    43    16    30    1
    44    17    44    1
    45    17    45    1
    46    18    21    1
    47    18    46    1
    48    18    47    1
    49    19    48    1
    50    19    49    1
    51    20    50    1
    52    21    51    1
    53    21    52    1
    54    22    27    1
    55    22    32    1
    56    22    53    1
    57    23    54    1
    58    23    55    1
    59    23    56    1
    60    24    57    1
    61    24    58    1
    62    24    59    1
    63    25    60    1
    64    25    61    1
    65    25    62    1
    66    26    27    1
    67    26    63    1
    68    26    64    1
    69    27    65    1
    70    27    66    1
    71    28    67    1
    72    28    68    1
    73    28    69    1
    74    29    70    1
    75    29    71    1
    76    29    72    1
    77    31    73    1
    78    32    33    1
    79    32    34    2
    80    33    75    1
    81    33    76    1
    82    33    77    1
    83    34    79    1
    84    34    80    1
