@<TRIPOS>MOLECULE
IMPHY005281
 26 28 0 0 0
SMALL
GASTEIGER

@<TRIPOS>ATOM
      1 S           5.3781   -0.0288    0.0000 S.2     1  UNL1       -0.0872
      2 S           7.4472   -0.7011    0.0000 S.2     1  UNL1       -0.0930
      3 S           3.3090   -0.7011    0.0000 S.2     1  UNL1       -0.0961
      4 C           6.1871    0.5590    0.0000 C.ar    1  UNL1        0.0265
      5 C           7.1382    0.2500    0.0000 C.ar    1  UNL1        0.0262
      6 C           4.5691    0.5590    0.0000 C.ar    1  UNL1        0.0265
      7 C           5.8781    1.5101    0.0000 C.ar    1  UNL1       -0.0458
      8 C           4.8781    1.5101    0.0000 C.ar    1  UNL1       -0.0458
      9 C           3.6180    0.2500    0.0000 C.ar    1  UNL1        0.0259
     10 C           7.9472    0.8378    0.0000 C.ar    1  UNL1       -0.0462
     11 C           8.4472   -0.7011    0.0000 C.ar    1  UNL1       -0.0127
     12 C           8.7562    0.2500    0.0000 C.ar    1  UNL1       -0.0512
     13 C           2.8090    0.8378    0.0000 C.ar    1  UNL1       -0.0464
     14 C           9.0350   -1.5101    0.0000 C.3     1  UNL1       -0.0334
     15 C           2.0000    0.2500    0.0000 C.ar    1  UNL1       -0.0541
     16 C           2.3090   -0.7011    0.0000 C.ar    1  UNL1       -0.0237
     17 H           6.2425    2.0117    0.0000 H       1  UNL1        0.0629
     18 H           4.5137    2.0117    0.0000 H       1  UNL1        0.0629
     19 H           7.9472    1.4578    0.0000 H       1  UNL1        0.0629
     20 H           9.3459    0.4416    0.0000 H       1  UNL1        0.0626
     21 H           2.8090    1.4578    0.0000 H       1  UNL1        0.0629
     22 H           8.5334   -1.8745    0.0000 H       1  UNL1        0.0283
     23 H           9.3994   -2.0117    0.0000 H       1  UNL1        0.0283
     24 H           9.5366   -1.1456    0.0000 H       1  UNL1        0.0283
     25 H           1.4103    0.4416    0.0000 H       1  UNL1        0.0623
     26 H           1.9446   -1.2026    0.0000 H       1  UNL1        0.0693
@<TRIPOS>BOND
     1     1     4   ar
     2     1     6   ar
     3     2     5   ar
     4     2    11   ar
     5     3     9   ar
     6     3    16   ar
     7     4     5    1
     8     4     7   ar
     9     5    10   ar
    10     6     8   ar
    11     6     9    1
    12     7     8   ar
    13     7    17    1
    14     8    18    1
    15     9    13   ar
    16    10    12   ar
    17    10    19    1
    18    11    12   ar
    19    11    14    1
    20    12    20    1
    21    13    15   ar
    22    13    21    1
    23    14    22    1
    24    14    23    1
    25    14    24    1
    26    15    16   ar
    27    15    25    1
    28    16    26    1
