@<TRIPOS>MOLECULE
IMPHY001008
 28 30 0 0 0
SMALL
GASTEIGER

@<TRIPOS>ATOM
      1 O           7.3424   -0.8047    0.0000 O.3     1  UNL1       -0.4487
      2 O           7.3424    0.8047    0.0000 O.3     1  UNL1       -0.4486
      3 O           3.7702    1.0347    0.0000 O.2     1  UNL1       -0.4182
      4 O           5.5301   -2.0000    0.0000 O.3     1  UNL1       -0.4906
      5 O           5.5301    2.0000    0.0000 O.3     1  UNL1       -0.4884
      6 O           2.0000    1.0241    0.0000 O.2     1  UNL1       -0.2452
      7 C           6.3961   -0.5000    0.0000 C.ar    1  UNL1        0.2120
      8 C           6.3961    0.5000    0.0000 C.ar    1  UNL1        0.2149
      9 C           4.6641   -0.5000    0.0000 C.ar    1  UNL1        0.0668
     10 C           5.5301   -1.0000    0.0000 C.ar    1  UNL1        0.1762
     11 C           4.6641    0.5000    0.0000 C.ar    1  UNL1        0.1878
     12 C           5.5301    1.0000    0.0000 C.ar    1  UNL1        0.2090
     13 C           7.9260    0.0000    0.0000 C.3     1  UNL1        0.2336
     14 C           3.7702   -1.0347    0.0000 C.ar    1  UNL1       -0.0405
     15 C           2.8641   -0.5208    0.0000 C.ar    1  UNL1        0.0237
     16 C           2.8641    0.5208    0.0000 C.ar    1  UNL1        0.3373
     17 C           6.3961   -2.5000    0.0000 C.3     1  UNL1        0.0790
     18 C           6.3961    2.5000    0.0000 C.3     1  UNL1        0.0791
     19 H           8.3869   -0.4147    0.0000 H       1  UNL1        0.1166
     20 H           8.3869    0.4147    0.0000 H       1  UNL1        0.1166
     21 H           3.7773   -1.6546    0.0000 H       1  UNL1        0.0628
     22 H           2.3284   -0.8329    0.0000 H       1  UNL1        0.0689
     23 H           6.0862   -3.0369    0.0000 H       1  UNL1        0.0660
     24 H           6.9331   -2.8100    0.0000 H       1  UNL1        0.0660
     25 H           6.7062   -1.9631    0.0000 H       1  UNL1        0.0660
     26 H           6.7062    1.9631    0.0000 H       1  UNL1        0.0660
     27 H           6.9331    2.8100    0.0000 H       1  UNL1        0.0660
     28 H           6.0862    3.0369    0.0000 H       1  UNL1        0.0660
@<TRIPOS>BOND
     1     1     7    1
     2     1    13    1
     3     2     8    1
     4     2    13    1
     5     3    11   ar
     6     3    16   ar
     7     4    10    1
     8     4    17    1
     9     5    12    1
    10     5    18    1
    11     6    16    2
    12     7     8   ar
    13     7    10   ar
    14     8    12   ar
    15     9    10   ar
    16     9    11   ar
    17     9    14   ar
    18    11    12   ar
    19    13    19    1
    20    13    20    1
    21    14    15   ar
    22    14    21    1
    23    15    16   ar
    24    15    22    1
    25    17    23    1
    26    17    24    1
    27    17    25    1
    28    18    26    1
    29    18    27    1
    30    18    28    1
