@<TRIPOS>MOLECULE
IMPHY016725
 26 26 0 0 0
SMALL
GASTEIGER

@<TRIPOS>ATOM
      1 C           3.7320    0.2500    0.0000 C.3     1  UNL1       -0.0167
      2 C           4.5981   -0.2500    0.0000 C.3     1  UNL1       -0.0460
      3 C           2.8660   -0.2500    0.0000 C.3     1  UNL1       -0.0255
      4 C           4.5981   -1.2500    0.0000 C.3     1  UNL1       -0.0488
      5 C           3.7320   -1.7500    0.0000 C.3     1  UNL1       -0.0320
      6 C           2.8660   -1.2500    0.0000 C.2     1  UNL1       -0.0760
      7 C           3.7320    1.2500    0.0000 C.2     1  UNL1       -0.0763
      8 C           4.5981    1.7500    0.0000 C.3     1  UNL1       -0.0438
      9 C           2.0000   -1.7500    0.0000 C.2     1  UNL1       -0.0994
     10 C           2.8660    1.7500    0.0000 C.2     1  UNL1       -0.0994
     11 H           4.2690    0.5600    0.0000 H       1  UNL1        0.0348
     12 H           5.2087   -0.3577    0.0000 H       1  UNL1        0.0271
     13 H           4.8101    0.3326    0.0000 H       1  UNL1        0.0271
     14 H           2.6540    0.3326    0.0000 H       1  UNL1        0.0316
     15 H           2.2554   -0.3577    0.0000 H       1  UNL1        0.0316
     16 H           4.8101   -1.8326    0.0000 H       1  UNL1        0.0268
     17 H           5.2087   -1.1423    0.0000 H       1  UNL1        0.0268
     18 H           3.3335   -2.2250    0.0000 H       1  UNL1        0.0310
     19 H           4.1306   -2.2250    0.0000 H       1  UNL1        0.0310
     20 H           4.9081    1.2131    0.0000 H       1  UNL1        0.0274
     21 H           5.1350    2.0600    0.0000 H       1  UNL1        0.0274
     22 H           4.2881    2.2869    0.0000 H       1  UNL1        0.0274
     23 H           1.4631   -1.4400    0.0000 H       1  UNL1        0.0534
     24 H           2.0000   -2.3700    0.0000 H       1  UNL1        0.0534
     25 H           2.8660    2.3700    0.0000 H       1  UNL1        0.0534
     26 H           2.3291    1.4400    0.0000 H       1  UNL1        0.0534
@<TRIPOS>BOND
     1     1     2    1
     2     1     3    1
     3     1     7    1
     4     1    11    1
     5     2     4    1
     6     2    12    1
     7     2    13    1
     8     3     6    1
     9     3    14    1
    10     3    15    1
    11     4     5    1
    12     4    16    1
    13     4    17    1
    14     5     6    1
    15     5    18    1
    16     5    19    1
    17     6     9    2
    18     7     8    1
    19     7    10    2
    20     8    20    1
    21     8    21    1
    22     8    22    1
    23     9    23    1
    24     9    24    1
    25    10    25    1
    26    10    26    1
