@<TRIPOS>MOLECULE
IMPHY004411
 68 76 0 0 0
SMALL
GASTEIGER

@<TRIPOS>ATOM
      1 O          11.3978    0.7102    0.0000 O.3     1  UNL1       -0.3180
      2 O           9.5355   -0.2246    0.0000 O.3     1  UNL1       -0.4532
      3 O          13.4363    2.9133    0.0000 O.3     1  UNL1       -0.4780
      4 O           9.3558    3.5878    0.0000 O.2     1  UNL1       -0.2924
      5 O           7.9564    3.0198    0.0000 O.3     1  UNL1       -0.5063
      6 O           8.6843   -0.6651    0.0000 O.3     1  UNL1       -0.5062
      7 O          15.8786    0.2392    0.0000 O.3     1  UNL1       -0.5066
      8 O          10.2507   -3.7548    0.0000 O.3     1  UNL1       -0.5066
      9 O           5.7250   -0.9319    0.0000 O.2     1  UNL1       -0.4547
     10 O           2.6183   -2.6491    0.0000 O.3     1  UNL1       -0.5066
     11 C          10.5248    1.2794    0.0000 C.3     1  UNL1        0.1643
     12 C          10.4682    0.2393    0.0000 C.3     1  UNL1        0.2743
     13 C          11.7458    2.1450    0.0000 C.3     1  UNL1        0.0285
     14 C           9.6958    1.8386    0.0000 C.3     1  UNL1        0.0896
     15 C          11.2680    4.0935    0.0000 C.3     1  UNL1        0.0037
     16 C          12.0047    3.1109    0.0000 C.3     1  UNL1        0.1663
     17 C           9.9714    2.7998    0.0000 C.2     1  UNL1        0.1868
     18 C           8.7526    1.3964    0.0000 C.ar    1  UNL1        0.0491
     19 C          13.0175    1.3504    0.0000 C.ar    1  UNL1        0.0008
     20 C          10.4138   -0.7593    0.0000 C.ar    1  UNL1        0.0680
     21 C           8.6720    0.3579    0.0000 C.ar    1  UNL1        0.1328
     22 C          13.7947    1.9797    0.0000 C.ar    1  UNL1        0.1289
     23 C          12.2635    4.0769    0.0000 C.3     1  UNL1       -0.0178
     24 C           7.8674    2.0238    0.0000 C.ar    1  UNL1        0.1250
     25 C          13.1646    0.3192    0.0000 C.ar    1  UNL1       -0.0513
     26 C           9.5219   -1.2114    0.0000 C.ar    1  UNL1        0.1298
     27 C          11.2514   -1.3056    0.0000 C.ar    1  UNL1       -0.0453
     28 C           7.7005   -0.1252    0.0000 C.ar    1  UNL1       -0.0086
     29 C          14.7728    1.6214    0.0000 C.ar    1  UNL1        0.0219
     30 C           6.8850    1.5632    0.0000 C.ar    1  UNL1       -0.0090
     31 C           6.8010    0.4815    0.0000 C.ar    1  UNL1        0.0242
     32 C          14.1341   -0.0616    0.0000 C.ar    1  UNL1       -0.0197
     33 C           9.4675   -2.2100    0.0000 C.ar    1  UNL1        0.0218
     34 C          11.1970   -2.3041    0.0000 C.ar    1  UNL1       -0.0195
     35 C          14.9436    0.5939    0.0000 C.ar    1  UNL1        0.1203
     36 C          10.3051   -2.7563    0.0000 C.ar    1  UNL1        0.1203
     37 C           5.9005    0.0466    0.0000 C.ar    1  UNL1        0.1365
     38 C           5.0250    0.5174    0.0000 C.ar    1  UNL1       -0.0081
     39 C           4.3055   -0.1685    0.0000 C.ar    1  UNL1        0.0210
     40 C           4.7404   -1.0690    0.0000 C.ar    1  UNL1        0.1391
     41 C           3.3082   -0.0949    0.0000 C.ar    1  UNL1       -0.0475
     42 C           4.1780   -1.8958    0.0000 C.ar    1  UNL1        0.0227
     43 C           2.7458   -0.9218    0.0000 C.ar    1  UNL1       -0.0194
     44 C           3.1807   -1.8222    0.0000 C.ar    1  UNL1        0.1204
     45 H          11.7639    1.5253    0.0000 H       1  UNL1        0.0382
     46 H           9.2239    2.2407    0.0000 H       1  UNL1        0.0461
     47 H          11.5858    4.6259    0.0000 H       1  UNL1        0.0315
     48 H          10.6549    4.1855    0.0000 H       1  UNL1        0.0315
     49 H          12.8624    3.9164    0.0000 H       1  UNL1        0.0272
     50 H          12.4239    4.6757    0.0000 H       1  UNL1        0.0272
     51 H          11.6646    4.2373    0.0000 H       1  UNL1        0.0272
     52 H          12.6783   -0.0654    0.0000 H       1  UNL1        0.0623
     53 H          11.8044   -1.0252    0.0000 H       1  UNL1        0.0625
     54 H           7.6596   -0.7439    0.0000 H       1  UNL1        0.0661
     55 H          15.2500    2.0172    0.0000 H       1  UNL1        0.0691
     56 H           6.3750    1.9158    0.0000 H       1  UNL1        0.0661
     57 H          14.2288   -0.6743    0.0000 H       1  UNL1        0.0654
     58 H           8.9145   -2.4903    0.0000 H       1  UNL1        0.0691
     59 H          11.7163   -2.6429    0.0000 H       1  UNL1        0.0654
     60 H           7.4492    3.3764    0.0000 H       1  UNL1        0.2921
     61 H           8.1313   -0.9454    0.0000 H       1  UNL1        0.2922
     62 H          16.3589    0.6312    0.0000 H       1  UNL1        0.2921
     63 H           4.9421    1.1319    0.0000 H       1  UNL1        0.0661
     64 H          10.7700   -4.0935    0.0000 H       1  UNL1        0.2921
     65 H           3.0385    0.4634    0.0000 H       1  UNL1        0.0626
     66 H           4.4476   -2.4541    0.0000 H       1  UNL1        0.0691
     67 H           2.1275   -0.8761    0.0000 H       1  UNL1        0.0654
     68 H           2.0000   -2.6035    0.0000 H       1  UNL1        0.2921
@<TRIPOS>BOND
     1     1    11    1
     2     1    12    1
     3     2    12    1
     4     2    21    1
     5     3    16    1
     6     3    22    1
     7     4    17    2
     8     5    24    1
     9     5    60    1
    10     6    26    1
    11     6    61    1
    12     7    35    1
    13     7    62    1
    14     8    36    1
    15     8    64    1
    16     9    37   ar
    17     9    40   ar
    18    10    44    1
    19    10    68    1
    20    11    12    1
    21    11    13    1
    22    11    14    1
    23    12    20    1
    24    13    15    1
    25    13    19    1
    26    13    45    1
    27    14    17    1
    28    14    18    1
    29    14    46    1
    30    15    16    1
    31    15    47    1
    32    15    48    1
    33    16    17    1
    34    16    23    1
    35    18    21   ar
    36    18    24   ar
    37    19    22   ar
    38    19    25   ar
    39    20    26   ar
    40    20    27   ar
    41    21    28   ar
    42    22    29   ar
    43    23    49    1
    44    23    50    1
    45    23    51    1
    46    24    30   ar
    47    25    32   ar
    48    25    52    1
    49    26    33   ar
    50    27    34   ar
    51    27    53    1
    52    28    31   ar
    53    28    54    1
    54    29    35   ar
    55    29    55    1
    56    30    31   ar
    57    30    56    1
    58    31    37    1
    59    32    35   ar
    60    32    57    1
    61    33    36   ar
    62    33    58    1
    63    34    36   ar
    64    34    59    1
    65    37    38   ar
    66    38    39   ar
    67    38    63    1
    68    39    40   ar
    69    39    41   ar
    70    40    42   ar
    71    41    43   ar
    72    41    65    1
    73    42    44   ar
    74    42    66    1
    75    43    44   ar
    76    43    67    1
