@<TRIPOS>MOLECULE
IMPHY003979
 78 81 0 0 0
SMALL
GASTEIGER

@<TRIPOS>ATOM
      1 O           2.0000   -3.6598    0.0000 O.2     1  UNL1       -0.2927
      2 C           7.3931   -0.6074    0.0000 C.3     1  UNL1       -0.0259
      3 C           7.3931   -1.6074    0.0000 C.3     1  UNL1       -0.0322
      4 C           6.5271   -2.1074    0.0000 C.3     1  UNL1       -0.0338
      5 C           5.6610   -1.6074    0.0000 C.3     1  UNL1       -0.0288
      6 C           8.3393   -0.3027    0.0000 C.3     1  UNL1       -0.0328
      7 C           6.5271   -0.1074    0.0000 C.3     1  UNL1       -0.0468
      8 C           8.3393   -1.9122    0.0000 C.3     1  UNL1       -0.0492
      9 C           4.7510   -2.1143    0.0000 C.3     1  UNL1       -0.0072
     10 C           5.6610   -0.6074    0.0000 C.3     1  UNL1       -0.0487
     11 C           8.9229   -1.1074    0.0000 C.3     1  UNL1       -0.0492
     12 C           6.5431   -3.1489    0.0000 C.3     1  UNL1       -0.0459
     13 C           8.6500    0.6478    0.0000 C.3     1  UNL1       -0.0405
     14 C           7.3931    0.3926    0.0000 C.3     1  UNL1       -0.0590
     15 C           4.7430   -3.1559    0.0000 C.2     1  UNL1       -0.0601
     16 C           5.6451   -3.6767    0.0000 C.3     1  UNL1       -0.0305
     17 C           3.8242   -1.5502    0.0000 C.3     1  UNL1       -0.0367
     18 C           4.7587   -1.1143    0.0000 C.3     1  UNL1       -0.0556
     19 C           9.6285    0.8540    0.0000 C.3     1  UNL1       -0.0499
     20 C           7.9821    1.3921    0.0000 C.3     1  UNL1       -0.0621
     21 C           2.8763   -2.0781    0.0000 C.3     1  UNL1        0.0107
     22 C           3.8076   -3.7056    0.0000 C.2     1  UNL1       -0.0194
     23 C           2.8680   -3.1631    0.0000 C.2     1  UNL1        0.1561
     24 C           9.9391    1.8046    0.0000 C.3     1  UNL1       -0.0497
     25 C          10.9176    2.0108    0.0000 C.3     1  UNL1       -0.0389
     26 C          11.2283    2.9613    0.0000 C.3     1  UNL1       -0.0439
     27 C          11.5855    1.2665    0.0000 C.3     1  UNL1       -0.0528
     28 C          12.2068    3.1675    0.0000 C.3     1  UNL1       -0.0624
     29 C          10.5605    3.7056    0.0000 C.3     1  UNL1       -0.0624
     30 C          12.5640    1.4727    0.0000 C.3     1  UNL1       -0.0650
     31 H           7.4587   -2.2240    0.0000 H       1  UNL1        0.0309
     32 H           7.0664   -2.4133    0.0000 H       1  UNL1        0.0307
     33 H           6.1980   -1.2974    0.0000 H       1  UNL1        0.0312
     34 H           8.9518   -0.2065    0.0000 H       1  UNL1        0.0309
     35 H           6.9256    0.3675    0.0000 H       1  UNL1        0.0271
     36 H           6.1285    0.3675    0.0000 H       1  UNL1        0.0271
     37 H           8.0883   -2.4791    0.0000 H       1  UNL1        0.0268
     38 H           8.8767   -2.2214    0.0000 H       1  UNL1        0.0268
     39 H           5.4490   -0.0248    0.0000 H       1  UNL1        0.0268
     40 H           5.0504   -0.7151    0.0000 H       1  UNL1        0.0268
     41 H           9.3838   -1.5222    0.0000 H       1  UNL1        0.0268
     42 H           9.3838   -0.6927    0.0000 H       1  UNL1        0.0268
     43 H           6.7612   -3.7293    0.0000 H       1  UNL1        0.0271
     44 H           7.1523   -3.0334    0.0000 H       1  UNL1        0.0271
     45 H           8.0433    0.5200    0.0000 H       1  UNL1        0.0301
     46 H           8.0131    0.3926    0.0000 H       1  UNL1        0.0235
     47 H           7.3931    1.0126    0.0000 H       1  UNL1        0.0235
     48 H           6.7731    0.3926    0.0000 H       1  UNL1        0.0235
     49 H           5.2478   -4.1527    0.0000 H       1  UNL1        0.0310
     50 H           6.0460   -4.1496    0.0000 H       1  UNL1        0.0310
     51 H           4.2324   -1.0835    0.0000 H       1  UNL1        0.0278
     52 H           3.4343   -1.0682    0.0000 H       1  UNL1        0.0278
     53 H           5.3787   -1.1191    0.0000 H       1  UNL1        0.0238
     54 H           4.7635   -0.4943    0.0000 H       1  UNL1        0.0238
     55 H           4.1388   -1.1095    0.0000 H       1  UNL1        0.0238
     56 H           9.6490    0.2344    0.0000 H       1  UNL1        0.0268
     57 H          10.2423    0.7667    0.0000 H       1  UNL1        0.0268
     58 H           8.4436    1.8062    0.0000 H       1  UNL1        0.0233
     59 H           7.5681    1.8536    0.0000 H       1  UNL1        0.0233
     60 H           7.5207    0.9781    0.0000 H       1  UNL1        0.0233
     61 H           2.6718   -1.4929    0.0000 H       1  UNL1        0.0345
     62 H           2.2647   -2.1795    0.0000 H       1  UNL1        0.0345
     63 H           3.8100   -4.3256    0.0000 H       1  UNL1        0.0652
     64 H           9.9186    2.4242    0.0000 H       1  UNL1        0.0268
     65 H           9.3253    1.8919    0.0000 H       1  UNL1        0.0268
     66 H          10.7250    1.4215    0.0000 H       1  UNL1        0.0303
     67 H          11.4209    3.5506    0.0000 H       1  UNL1        0.0298
     68 H          11.0591    0.9388    0.0000 H       1  UNL1        0.0265
     69 H          11.8167    0.6912    0.0000 H       1  UNL1        0.0265
     70 H          12.3347    2.5608    0.0000 H       1  UNL1        0.0232
     71 H          12.8135    3.2954    0.0000 H       1  UNL1        0.0232
     72 H          12.0790    3.7742    0.0000 H       1  UNL1        0.0232
     73 H          11.0219    4.1197    0.0000 H       1  UNL1        0.0232
     74 H          10.1464    4.1671    0.0000 H       1  UNL1        0.0232
     75 H          10.0990    3.2915    0.0000 H       1  UNL1        0.0232
     76 H          12.6918    0.8660    0.0000 H       1  UNL1        0.0230
     77 H          13.1707    1.6006    0.0000 H       1  UNL1        0.0230
     78 H          12.4361    2.0794    0.0000 H       1  UNL1        0.0230
@<TRIPOS>BOND
     1     1    23    2
     2     2     3    1
     3     2     6    1
     4     2     7    1
     5     2    14    1
     6     3     4    1
     7     3     8    1
     8     3    31    1
     9     4     5    1
    10     4    12    1
    11     4    32    1
    12     5     9    1
    13     5    10    1
    14     5    33    1
    15     6    11    1
    16     6    13    1
    17     6    34    1
    18     7    10    1
    19     7    35    1
    20     7    36    1
    21     8    11    1
    22     8    37    1
    23     8    38    1
    24     9    15    1
    25     9    17    1
    26     9    18    1
    27    10    39    1
    28    10    40    1
    29    11    41    1
    30    11    42    1
    31    12    16    1
    32    12    43    1
    33    12    44    1
    34    13    19    1
    35    13    20    1
    36    13    45    1
    37    14    46    1
    38    14    47    1
    39    14    48    1
    40    15    16    1
    41    15    22    2
    42    16    49    1
    43    16    50    1
    44    17    21    1
    45    17    51    1
    46    17    52    1
    47    18    53    1
    48    18    54    1
    49    18    55    1
    50    19    24    1
    51    19    56    1
    52    19    57    1
    53    20    58    1
    54    20    59    1
    55    20    60    1
    56    21    23    1
    57    21    61    1
    58    21    62    1
    59    22    23    1
    60    22    63    1
    61    25    24    1
    62    24    64    1
    63    24    65    1
    64    25    26    1
    65    25    27    1
    66    25    66    1
    67    26    28    1
    68    26    29    1
    69    26    67    1
    70    27    30    1
    71    27    68    1
    72    27    69    1
    73    28    70    1
    74    28    71    1
    75    28    72    1
    76    29    73    1
    77    29    74    1
    78    29    75    1
    79    30    76    1
    80    30    77    1
    81    30    78    1
