@<TRIPOS>MOLECULE
IMPHY001015
 38 41 0 0 0
SMALL
GASTEIGER

@<TRIPOS>ATOM
      1 O           2.0520    1.8137    0.0000 O.2     1  UNL1       -0.2698
      2 O           2.8963    3.3452    0.0000 O.3     1  UNL1       -0.5028
      3 O           5.6405   -3.3232    0.0000 O.3     1  UNL1       -0.5033
      4 O           3.8372   -4.3830    0.0000 O.3     1  UNL1       -0.5033
      5 O           4.6622    4.3830    0.0000 O.3     1  UNL1       -0.5033
      6 N           2.9180    0.3137    0.0000 N.am    1  UNL1       -0.2897
      7 C           3.7841   -0.1863    0.0000 C.3     1  UNL1        0.0558
      8 C           4.6501    0.3137    0.0000 C.3     1  UNL1       -0.0040
      9 C           3.8001   -1.2278    0.0000 C.ar    1  UNL1       -0.0198
     10 C           2.0080   -0.1931    0.0000 C.3     1  UNL1        0.0196
     11 C           2.0000   -1.2347    0.0000 C.3     1  UNL1       -0.0114
     12 C           2.9021   -1.7555    0.0000 C.ar    1  UNL1       -0.0372
     13 C           4.6501    1.3137    0.0000 C.ar    1  UNL1       -0.0294
     14 C           2.9180    1.3137    0.0000 C.2     1  UNL1        0.2510
     15 C           3.7841    1.8137    0.0000 C.ar    1  UNL1        0.0851
     16 C           4.7520   -1.7484    0.0000 C.ar    1  UNL1       -0.0113
     17 C           2.8937   -2.8405    0.0000 C.ar    1  UNL1       -0.0130
     18 C           5.5601    1.8206    0.0000 C.ar    1  UNL1       -0.0541
     19 C           3.7680    2.8552    0.0000 C.ar    1  UNL1        0.1708
     20 C           4.7688   -2.8333    0.0000 C.ar    1  UNL1        0.1585
     21 C           3.8334   -3.3830    0.0000 C.ar    1  UNL1        0.1585
     22 C           5.5681    2.8622    0.0000 C.ar    1  UNL1       -0.0162
     23 C           4.6660    3.3830    0.0000 C.ar    1  UNL1        0.1590
     24 H           4.3234   -0.4921    0.0000 H       1  UNL1        0.0554
     25 H           4.8621   -0.2689    0.0000 H       1  UNL1        0.0335
     26 H           5.2607    0.4214    0.0000 H       1  UNL1        0.0335
     27 H           1.8035    0.3922    0.0000 H       1  UNL1        0.0468
     28 H           1.3964   -0.2945    0.0000 H       1  UNL1        0.0468
     29 H           1.3900   -1.1239    0.0000 H       1  UNL1        0.0328
     30 H           1.7864   -1.8168    0.0000 H       1  UNL1        0.0328
     31 H           5.2829   -1.4281    0.0000 H       1  UNL1        0.0659
     32 H           2.3556   -3.1484    0.0000 H       1  UNL1        0.0658
     33 H           6.0934    1.5044    0.0000 H       1  UNL1        0.0622
     34 H           6.1062    3.1701    0.0000 H       1  UNL1        0.0655
     35 H           2.8891    3.9652    0.0000 H       1  UNL1        0.2923
     36 H           6.1738   -3.0070    0.0000 H       1  UNL1        0.2923
     37 H           3.3015   -4.6950    0.0000 H       1  UNL1        0.2923
     38 H           5.1979    4.6950    0.0000 H       1  UNL1        0.2923
@<TRIPOS>BOND
     1     1    14    2
     2     2    19    1
     3     2    35    1
     4     3    20    1
     5     3    36    1
     6     4    21    1
     7     4    37    1
     8     5    23    1
     9     5    38    1
    10     6     7    1
    11     6    10    1
    12     6    14   am
    13     7     8    1
    14     7     9    1
    15     7    24    1
    16     8    13    1
    17     8    25    1
    18     8    26    1
    19     9    12   ar
    20     9    16   ar
    21    10    11    1
    22    10    27    1
    23    10    28    1
    24    11    12    1
    25    11    29    1
    26    11    30    1
    27    12    17   ar
    28    13    15   ar
    29    13    18   ar
    30    14    15    1
    31    15    19   ar
    32    16    20   ar
    33    16    31    1
    34    17    21   ar
    35    17    32    1
    36    18    22   ar
    37    18    33    1
    38    19    23   ar
    39    20    21   ar
    40    22    23   ar
    41    22    34    1
