@<TRIPOS>MOLECULE
IMPHY015912
 23 22 0 0 0
SMALL
GASTEIGER

@<TRIPOS>ATOM
      1 O           4.5981    0.2500    0.0000 O.3     1  UNL1       -0.4645
      2 O           5.4641   -1.2500    0.0000 O.2     1  UNL1       -0.2506
      3 C           6.3301    0.2500    0.0000 C.3     1  UNL1        0.0508
      4 C           3.7320   -0.2500    0.0000 C.3     1  UNL1        0.0922
      5 C           2.8660    0.2500    0.0000 C.3     1  UNL1       -0.0214
      6 C           5.4641   -0.2500    0.0000 C.2     1  UNL1        0.3097
      7 C           7.1962   -0.2500    0.0000 C.3     1  UNL1       -0.0525
      8 C           6.3301    1.2500    0.0000 C.3     1  UNL1       -0.0525
      9 C           2.0000   -0.2500    0.0000 C.3     1  UNL1       -0.0622
     10 H           6.8671    0.5600    0.0000 H       1  UNL1        0.0408
     11 H           3.3335   -0.7249    0.0000 H       1  UNL1        0.0697
     12 H           4.1306   -0.7249    0.0000 H       1  UNL1        0.0697
     13 H           3.2646    0.7249    0.0000 H       1  UNL1        0.0295
     14 H           2.4675    0.7249    0.0000 H       1  UNL1        0.0295
     15 H           6.8862   -0.7869    0.0000 H       1  UNL1        0.0237
     16 H           7.7331   -0.5600    0.0000 H       1  UNL1        0.0237
     17 H           7.5062    0.2869    0.0000 H       1  UNL1        0.0237
     18 H           6.9501    1.2500    0.0000 H       1  UNL1        0.0237
     19 H           6.3301    1.8700    0.0000 H       1  UNL1        0.0237
     20 H           5.7101    1.2500    0.0000 H       1  UNL1        0.0237
     21 H           1.6900    0.2869    0.0000 H       1  UNL1        0.0231
     22 H           1.4631   -0.5600    0.0000 H       1  UNL1        0.0231
     23 H           2.3100   -0.7869    0.0000 H       1  UNL1        0.0231
@<TRIPOS>BOND
     1     1     4    1
     2     1     6    1
     3     2     6    2
     4     3     6    1
     5     3     7    1
     6     3     8    1
     7     3    10    1
     8     4     5    1
     9     4    11    1
    10     4    12    1
    11     5     9    1
    12     5    13    1
    13     5    14    1
    14     7    15    1
    15     7    16    1
    16     7    17    1
    17     8    18    1
    18     8    19    1
    19     8    20    1
    20     9    21    1
    21     9    22    1
    22     9    23    1
