@<TRIPOS>MOLECULE
IMPHY013930
 51 52 0 0 0
SMALL
GASTEIGER

@<TRIPOS>ATOM
      1 I           4.2144    0.0000    0.0000 I       1  UNL1        0.0000
      2 O           3.1350   10.2130    0.0000 O.3     2  UNL2       -0.4907
      3 O           1.4030    7.2130    0.0000 O.3     2  UNL2       -0.4913
      4 O           1.4030    9.2130    0.0000 O.3     2  UNL2       -0.4885
      5 O           8.3242    4.1385    0.0000 O.3     2  UNL2       -0.4951
      6 N           5.8010    7.6922    0.0000 N.ar    2  UNL2       -0.2031
      7 C           4.8950    7.1783    0.0000 C.ar    2  UNL2        0.1960
      8 C           4.0010    7.7130    0.0000 C.ar    2  UNL2        0.0565
      9 C           4.0010    8.7130    0.0000 C.ar    2  UNL2        0.0392
     10 C           4.8834    6.1784    0.0000 C.3     2  UNL2        0.0582
     11 C           3.1350    7.2130    0.0000 C.ar    2  UNL2       -0.0024
     12 C           3.1350    9.2130    0.0000 C.ar    2  UNL2        0.1732
     13 C           4.8950    9.2476    0.0000 C.ar    2  UNL2        0.0134
     14 C           5.8010    8.7338    0.0000 C.ar    2  UNL2        0.1719
     15 C           5.7436    5.6684    0.0000 C.ar    2  UNL2       -0.0371
     16 C           2.2690    7.7130    0.0000 C.ar    2  UNL2        0.1660
     17 C           2.2690    8.7130    0.0000 C.ar    2  UNL2        0.2041
     18 C           6.6651    7.1888    0.0000 C.3     2  UNL2        0.1407
     19 C           6.6154    6.1584    0.0000 C.ar    2  UNL2       -0.0546
     20 C           5.7320    4.6685    0.0000 C.ar    2  UNL2       -0.0546
     21 C           7.4755    5.6484    0.0000 C.ar    2  UNL2       -0.0197
     22 C           6.5922    4.1585    0.0000 C.ar    2  UNL2       -0.0197
     23 C           7.4640    4.6485    0.0000 C.ar    2  UNL2        0.1201
     24 C           2.2690   10.7130    0.0000 C.3     2  UNL2        0.0790
     25 C           1.4030    6.2130    0.0000 C.3     2  UNL2        0.0790
     26 C           0.5369    8.7130    0.0000 C.3     2  UNL2        0.0791
     27 C           8.3126    3.1385    0.0000 C.3     2  UNL2        0.0788
     28 H           4.2741    6.2931    0.0000 H       2  UNL2        0.0421
     29 H           4.6646    5.5983    0.0000 H       2  UNL2        0.0421
     30 H           3.1350    6.5930    0.0000 H       2  UNL2        0.0663
     31 H           4.8878    9.8676    0.0000 H       2  UNL2        0.0684
     32 H           6.3368    9.0459    0.0000 H       2  UNL2        0.1376
     33 H           6.3531    6.6531    0.0000 H       2  UNL2        0.0993
     34 H           7.2009    6.8768    0.0000 H       2  UNL2        0.0993
     35 H           6.9772    7.7246    0.0000 H       2  UNL2        0.0993
     36 H           6.6225    6.7783    0.0000 H       2  UNL2        0.0622
     37 H           5.1916    4.3647    0.0000 H       2  UNL2        0.0622
     38 H           8.0160    5.9522    0.0000 H       2  UNL2        0.0654
     39 H           6.5850    3.5386    0.0000 H       2  UNL2        0.0654
     40 H           2.5790   11.2499    0.0000 H       2  UNL2        0.0660
     41 H           1.7320   11.0230    0.0000 H       2  UNL2        0.0660
     42 H           1.9590   10.1761    0.0000 H       2  UNL2        0.0660
     43 H           0.7830    6.2130    0.0000 H       2  UNL2        0.0660
     44 H           1.4030    5.5930    0.0000 H       2  UNL2        0.0660
     45 H           2.0230    6.2130    0.0000 H       2  UNL2        0.0660
     46 H           0.2269    9.2499    0.0000 H       2  UNL2        0.0660
     47 H           0.0000    8.4030    0.0000 H       2  UNL2        0.0660
     48 H           0.8469    8.1761    0.0000 H       2  UNL2        0.0660
     49 H           7.6926    3.1457    0.0000 H       2  UNL2        0.0660
     50 H           8.3054    2.5186    0.0000 H       2  UNL2        0.0660
     51 H           8.9326    3.1314    0.0000 H       2  UNL2        0.0660
@<TRIPOS>UNITY_ATOM_ATTR
1 1
charge -1
6 1
charge 1
@<TRIPOS>BOND
     1     2    12    1
     2     2    24    1
     3     3    16    1
     4     3    25    1
     5     4    17    1
     6     4    26    1
     7     5    23    1
     8     5    27    1
     9     6     7   ar
    10     6    14   ar
    11     6    18    1
    12     7     8   ar
    13     7    10    1
    14     8     9   ar
    15     8    11   ar
    16     9    12   ar
    17     9    13   ar
    18    10    15    1
    19    10    28    1
    20    10    29    1
    21    11    16   ar
    22    11    30    1
    23    12    17   ar
    24    13    14   ar
    25    13    31    1
    26    14    32    1
    27    15    19   ar
    28    15    20   ar
    29    16    17   ar
    30    18    33    1
    31    18    34    1
    32    18    35    1
    33    19    21   ar
    34    19    36    1
    35    20    22   ar
    36    20    37    1
    37    21    23   ar
    38    21    38    1
    39    22    23   ar
    40    22    39    1
    41    24    40    1
    42    24    41    1
    43    24    42    1
    44    25    43    1
    45    25    44    1
    46    25    45    1
    47    26    46    1
    48    26    47    1
    49    26    48    1
    50    27    49    1
    51    27    50    1
    52    27    51    1
