@<TRIPOS>MOLECULE
IMPHY014861
 60 59 0 0 0
SMALL
GASTEIGER

@<TRIPOS>ATOM
      1 O           2.5369   -2.2500    0.0000 O.3     1  UNL1       -0.4806
      2 O           3.4030   -3.7500    0.0000 O.2     1  UNL1       -0.2510
      3 C           8.5991   -2.7500    0.0000 C.3     1  UNL1       -0.0530
      4 C           7.7331   -2.2500    0.0000 C.3     1  UNL1       -0.0531
      5 C           9.4651   -2.2500    0.0000 C.3     1  UNL1       -0.0528
      6 C           6.8671   -2.7500    0.0000 C.3     1  UNL1       -0.0530
      7 C          10.3312   -2.7500    0.0000 C.3     1  UNL1       -0.0496
      8 C           6.0010   -2.2500    0.0000 C.3     1  UNL1       -0.0526
      9 C          14.6613    0.7500    0.0000 C.3     1  UNL1       -0.0530
     10 C          13.7953    0.2500    0.0000 C.3     1  UNL1       -0.0528
     11 C          14.6613    1.7500    0.0000 C.3     1  UNL1       -0.0531
     12 C          13.7953   -0.7500    0.0000 C.3     1  UNL1       -0.0496
     13 C          11.1972   -2.2500    0.0000 C.3     1  UNL1       -0.0348
     14 C           5.1350   -2.7500    0.0000 C.3     1  UNL1       -0.0430
     15 C          15.5273    2.2500    0.0000 C.3     1  UNL1       -0.0533
     16 C          12.9292   -1.2500    0.0000 C.3     1  UNL1       -0.0348
     17 C          12.0632   -2.7500    0.0000 C.2     1  UNL1       -0.0879
     18 C          15.5273    3.2500    0.0000 C.3     1  UNL1       -0.0559
     19 C          12.9292   -2.2500    0.0000 C.2     1  UNL1       -0.0879
     20 C           4.2690   -2.2500    0.0000 C.3     1  UNL1        0.0448
     21 C          16.3933    3.7500    0.0000 C.3     1  UNL1       -0.0653
     22 C           3.4030   -2.7500    0.0000 C.2     1  UNL1        0.3047
     23 H           8.2006   -3.2250    0.0000 H       1  UNL1        0.0265
     24 H           8.9976   -3.2250    0.0000 H       1  UNL1        0.0265
     25 H           8.1316   -1.7750    0.0000 H       1  UNL1        0.0265
     26 H           7.3346   -1.7750    0.0000 H       1  UNL1        0.0265
     27 H           9.8637   -1.7750    0.0000 H       1  UNL1        0.0265
     28 H           9.0666   -1.7750    0.0000 H       1  UNL1        0.0265
     29 H           6.4685   -3.2250    0.0000 H       1  UNL1        0.0265
     30 H           7.2656   -3.2250    0.0000 H       1  UNL1        0.0265
     31 H           9.9326   -3.2250    0.0000 H       1  UNL1        0.0268
     32 H          10.7297   -3.2250    0.0000 H       1  UNL1        0.0268
     33 H           6.3996   -1.7750    0.0000 H       1  UNL1        0.0265
     34 H           5.6025   -1.7750    0.0000 H       1  UNL1        0.0265
     35 H          14.8733    0.1674    0.0000 H       1  UNL1        0.0265
     36 H          15.2719    0.8577    0.0000 H       1  UNL1        0.0265
     37 H          13.5832    0.8326    0.0000 H       1  UNL1        0.0265
     38 H          13.1847    0.1423    0.0000 H       1  UNL1        0.0265
     39 H          14.4492    2.3326    0.0000 H       1  UNL1        0.0265
     40 H          14.0507    1.6423    0.0000 H       1  UNL1        0.0265
     41 H          14.0073   -1.3326    0.0000 H       1  UNL1        0.0268
     42 H          14.4058   -0.6423    0.0000 H       1  UNL1        0.0268
     43 H          11.5957   -1.7750    0.0000 H       1  UNL1        0.0307
     44 H          10.7987   -1.7750    0.0000 H       1  UNL1        0.0307
     45 H           4.7365   -3.2250    0.0000 H       1  UNL1        0.0270
     46 H           5.5335   -3.2250    0.0000 H       1  UNL1        0.0270
     47 H          15.7394    1.6674    0.0000 H       1  UNL1        0.0265
     48 H          16.1379    2.3577    0.0000 H       1  UNL1        0.0265
     49 H          12.7172   -0.6674    0.0000 H       1  UNL1        0.0307
     50 H          12.3187   -1.3577    0.0000 H       1  UNL1        0.0307
     51 H          12.0632   -3.3700    0.0000 H       1  UNL1        0.0569
     52 H          15.3153    3.8326    0.0000 H       1  UNL1        0.0263
     53 H          14.9167    3.1423    0.0000 H       1  UNL1        0.0263
     54 H          13.4662   -2.5600    0.0000 H       1  UNL1        0.0569
     55 H           4.6675   -1.7750    0.0000 H       1  UNL1        0.0377
     56 H           3.8705   -1.7750    0.0000 H       1  UNL1        0.0377
     57 H          16.7033    3.2131    0.0000 H       1  UNL1        0.0230
     58 H          16.9303    4.0600    0.0000 H       1  UNL1        0.0230
     59 H          16.0833    4.2869    0.0000 H       1  UNL1        0.0230
     60 H           2.0000   -2.5600    0.0000 H       1  UNL1        0.2951
@<TRIPOS>BOND
     1     1    22    1
     2     1    60    1
     3     2    22    2
     4     3     4    1
     5     3     5    1
     6     3    23    1
     7     3    24    1
     8     4     6    1
     9     4    25    1
    10     4    26    1
    11     5     7    1
    12     5    27    1
    13     5    28    1
    14     6     8    1
    15     6    29    1
    16     6    30    1
    17     7    13    1
    18     7    31    1
    19     7    32    1
    20     8    14    1
    21     8    33    1
    22     8    34    1
    23     9    10    1
    24     9    11    1
    25     9    35    1
    26     9    36    1
    27    10    12    1
    28    10    37    1
    29    10    38    1
    30    11    15    1
    31    11    39    1
    32    11    40    1
    33    12    16    1
    34    12    41    1
    35    12    42    1
    36    13    17    1
    37    13    43    1
    38    13    44    1
    39    14    20    1
    40    14    45    1
    41    14    46    1
    42    15    18    1
    43    15    47    1
    44    15    48    1
    45    16    19    1
    46    16    49    1
    47    16    50    1
    48    17    19    2
    49    17    51    1
    50    18    21    1
    51    18    52    1
    52    18    53    1
    53    19    54    1
    54    20    22    1
    55    20    55    1
    56    20    56    1
    57    21    57    1
    58    21    58    1
    59    21    59    1
