@<TRIPOS>MOLECULE
IMPHY004850
 73 73 0 0 0
SMALL
GASTEIGER

@<TRIPOS>ATOM
      1 O           5.4109    0.6059    0.0000 O.2     1  UNL1       -0.2758
      2 N           8.7418   -0.4566    0.0000 N.3     1  UNL1       -0.3127
      3 N          11.4513    2.0135    0.0000 N.3     1  UNL1       -0.3159
      4 N           6.0324    2.0135    0.0000 N.am    1  UNL1       -0.3152
      5 N           8.2418    4.9393    0.0000 N.3     1  UNL1       -0.3159
      6 C           7.7589   -0.2728    0.0000 C.3     1  UNL1        0.0159
      7 C           7.3976   -1.2053    0.0000 C.3     1  UNL1       -0.0371
      8 C           6.4095   -1.3587    0.0000 C.3     1  UNL1       -0.0516
      9 C           6.0482   -2.2912    0.0000 C.3     1  UNL1       -0.0530
     10 C           6.9086    0.2536    0.0000 C.3     1  UNL1        0.0393
     11 C           5.0601   -2.4445    0.0000 C.3     1  UNL1       -0.0531
     12 C           4.6988   -3.3770    0.0000 C.3     1  UNL1       -0.0531
     13 C           9.7248   -0.2728    0.0000 C.3     1  UNL1       -0.0027
     14 C          10.5750    0.2536    0.0000 C.3     1  UNL1       -0.0278
     15 C           3.7106   -3.5304    0.0000 C.3     1  UNL1       -0.0531
     16 C           6.3060    1.0516    0.0000 C.2     1  UNL1        0.2145
     17 C          11.1777    1.0516    0.0000 C.3     1  UNL1       -0.0030
     18 C           3.3494   -4.4629    0.0000 C.3     1  UNL1       -0.0533
     19 C          11.3591    3.0092    0.0000 C.3     1  UNL1       -0.0041
     20 C          10.9133    3.9044    0.0000 C.3     1  UNL1       -0.0393
     21 C          10.1743    4.5781    0.0000 C.3     1  UNL1       -0.0393
     22 C           6.1246    3.0092    0.0000 C.3     1  UNL1        0.0127
     23 C           6.5704    3.9044    0.0000 C.3     1  UNL1       -0.0248
     24 C           2.3612   -4.6163    0.0000 C.3     1  UNL1       -0.0559
     25 C           9.2418    4.9393    0.0000 C.3     1  UNL1       -0.0041
     26 C           7.3094    4.5781    0.0000 C.3     1  UNL1       -0.0027
     27 C           2.0000   -5.5487    0.0000 C.3     1  UNL1       -0.0653
     28 H           8.0606   -0.8145    0.0000 H       1  UNL1        0.0465
     29 H           7.3849   -1.8252    0.0000 H       1  UNL1        0.0280
     30 H           8.0059   -1.3255    0.0000 H       1  UNL1        0.0280
     31 H           6.4222   -0.7388    0.0000 H       1  UNL1        0.0266
     32 H           5.8012   -1.2385    0.0000 H       1  UNL1        0.0266
     33 H           6.0355   -2.9110    0.0000 H       1  UNL1        0.0265
     34 H           6.6565   -2.4113    0.0000 H       1  UNL1        0.0265
     35 H           6.3074    0.1024    0.0000 H       1  UNL1        0.0374
     36 H           7.3263    0.7118    0.0000 H       1  UNL1        0.0374
     37 H           5.0728   -1.8247    0.0000 H       1  UNL1        0.0265
     38 H           4.4518   -2.3244    0.0000 H       1  UNL1        0.0265
     39 H           8.7418   -1.0766    0.0000 H       1  UNL1        0.1222
     40 H           4.6861   -3.9969    0.0000 H       1  UNL1        0.0265
     41 H           5.3071   -3.4972    0.0000 H       1  UNL1        0.0265
     42 H           9.5922   -0.8785    0.0000 H       1  UNL1        0.0424
     43 H           9.5008    0.3053    0.0000 H       1  UNL1        0.0424
     44 H          10.6701   -0.3590    0.0000 H       1  UNL1        0.0290
     45 H          10.1573    0.7118    0.0000 H       1  UNL1        0.0290
     46 H           3.7234   -2.9105    0.0000 H       1  UNL1        0.0265
     47 H           3.1024   -3.4102    0.0000 H       1  UNL1        0.0265
     48 H          11.4877    0.5147    0.0000 H       1  UNL1        0.0424
     49 H          10.6227    1.3280    0.0000 H       1  UNL1        0.0424
     50 H           3.3367   -5.0828    0.0000 H       1  UNL1        0.0265
     51 H           3.9576   -4.5830    0.0000 H       1  UNL1        0.0265
     52 H          11.9499    2.8212    0.0000 H       1  UNL1        0.0424
     53 H          10.7627    2.8395    0.0000 H       1  UNL1        0.0424
     54 H          11.5321    3.9425    0.0000 H       1  UNL1        0.0278
     55 H          10.4186    3.5307    0.0000 H       1  UNL1        0.0278
     56 H          12.0687    1.9563    0.0000 H       1  UNL1        0.1219
     57 H          10.7376    4.8372    0.0000 H       1  UNL1        0.0278
     58 H           9.8479    4.0509    0.0000 H       1  UNL1        0.0278
     59 H           5.4150    1.9563    0.0000 H       1  UNL1        0.1487
     60 H           5.7212    3.4800    0.0000 H       1  UNL1        0.0462
     61 H           6.7210    2.8395    0.0000 H       1  UNL1        0.0462
     62 H           6.3643    4.4891    0.0000 H       1  UNL1        0.0293
     63 H           7.0651    3.5307    0.0000 H       1  UNL1        0.0293
     64 H           9.6735    5.3844    0.0000 H       1  UNL1        0.0424
     65 H           9.1279    4.3299    0.0000 H       1  UNL1        0.0424
     66 H           2.3740   -3.9964    0.0000 H       1  UNL1        0.0263
     67 H           1.7530   -4.4961    0.0000 H       1  UNL1        0.0263
     68 H           7.3285    5.1978    0.0000 H       1  UNL1        0.0424
     69 H           7.6358    4.0509    0.0000 H       1  UNL1        0.0424
     70 H           8.1279    5.5487    0.0000 H       1  UNL1        0.1219
     71 H           1.4219   -5.3248    0.0000 H       1  UNL1        0.0230
     72 H           1.7760   -6.1269    0.0000 H       1  UNL1        0.0230
     73 H           2.5781   -5.7727    0.0000 H       1  UNL1        0.0230
@<TRIPOS>BOND
     1     1    16    2
     2     2     6    1
     3     2    13    1
     4     2    39    1
     5     3    17    1
     6     3    19    1
     7     3    56    1
     8     4    16   am
     9     4    22    1
    10     4    59    1
    11     5    25    1
    12     5    26    1
    13     5    70    1
    14     6     7    1
    15     6    10    1
    16     6    28    1
    17     7     8    1
    18     7    29    1
    19     7    30    1
    20     8     9    1
    21     8    31    1
    22     8    32    1
    23     9    11    1
    24     9    33    1
    25     9    34    1
    26    10    16    1
    27    10    35    1
    28    10    36    1
    29    11    12    1
    30    11    37    1
    31    11    38    1
    32    12    15    1
    33    12    40    1
    34    12    41    1
    35    13    14    1
    36    13    42    1
    37    13    43    1
    38    14    17    1
    39    14    44    1
    40    14    45    1
    41    15    18    1
    42    15    46    1
    43    15    47    1
    44    17    48    1
    45    17    49    1
    46    18    24    1
    47    18    50    1
    48    18    51    1
    49    19    20    1
    50    19    52    1
    51    19    53    1
    52    20    21    1
    53    20    54    1
    54    20    55    1
    55    21    25    1
    56    21    57    1
    57    21    58    1
    58    22    23    1
    59    22    60    1
    60    22    61    1
    61    23    26    1
    62    23    62    1
    63    23    63    1
    64    24    27    1
    65    24    66    1
    66    24    67    1
    67    25    64    1
    68    25    65    1
    69    26    68    1
    70    26    69    1
    71    27    71    1
    72    27    72    1
    73    27    73    1
