@<TRIPOS>MOLECULE
IMPHY007583
 165 164 0 0 0
SMALL
GASTEIGER

@<TRIPOS>ATOM
      1 O          16.7224    2.0600    0.0000 O.3     1  UNL1       -0.4544
      2 O          14.1244    1.5600    0.0000 O.3     1  UNL1       -0.4608
      3 O          14.9904    0.0600    0.0000 O.3     1  UNL1       -0.4608
      4 O          17.5885    0.5600    0.0000 O.2     1  UNL1       -0.2508
      5 O          13.2583    3.0600    0.0000 O.2     1  UNL1       -0.2509
      6 O          15.8564   -1.4400    0.0000 O.2     1  UNL1       -0.2509
      7 C          21.0526    1.5600    0.0000 C.3     1  UNL1       -0.0530
      8 C          21.9186    2.0600    0.0000 C.3     1  UNL1       -0.0528
      9 C           9.7942    2.0600    0.0000 C.3     1  UNL1       -0.0530
     10 C          20.1865    2.0600    0.0000 C.3     1  UNL1       -0.0526
     11 C           8.9282    1.5600    0.0000 C.3     1  UNL1       -0.0528
     12 C          26.2487    4.5600    0.0000 C.3     1  UNL1       -0.0528
     13 C          27.1147    5.0600    0.0000 C.3     1  UNL1       -0.0530
     14 C          22.7846    1.5600    0.0000 C.3     1  UNL1       -0.0496
     15 C           3.7320   -1.4400    0.0000 C.3     1  UNL1       -0.0530
     16 C           4.5981   -0.9400    0.0000 C.3     1  UNL1       -0.0528
     17 C          10.6603    1.5600    0.0000 C.3     1  UNL1       -0.0526
     18 C           8.0622    2.0600    0.0000 C.3     1  UNL1       -0.0496
     19 C          26.2487    3.5600    0.0000 C.3     1  UNL1       -0.0496
     20 C          27.1147    6.0600    0.0000 C.3     1  UNL1       -0.0531
     21 C           3.7320   -2.4400    0.0000 C.3     1  UNL1       -0.0531
     22 C           4.5981    0.0600    0.0000 C.3     1  UNL1       -0.0496
     23 C          19.3205    1.5600    0.0000 C.3     1  UNL1       -0.0430
     24 C          11.5263    2.0600    0.0000 C.3     1  UNL1       -0.0430
     25 C          23.6506    2.0600    0.0000 C.3     1  UNL1       -0.0348
     26 C           7.1962    1.5600    0.0000 C.3     1  UNL1       -0.0348
     27 C          25.3827    3.0600    0.0000 C.3     1  UNL1       -0.0348
     28 C          27.9808    6.5600    0.0000 C.3     1  UNL1       -0.0533
     29 C           2.8660   -2.9400    0.0000 C.3     1  UNL1       -0.0533
     30 C           5.4641    0.5600    0.0000 C.3     1  UNL1       -0.0348
     31 C          13.2583   -3.9400    0.0000 C.3     1  UNL1       -0.0530
     32 C          13.2583   -2.9400    0.0000 C.3     1  UNL1       -0.0526
     33 C          18.4545    2.0600    0.0000 C.3     1  UNL1        0.0450
     34 C          12.3923   -4.4400    0.0000 C.3     1  UNL1       -0.0528
     35 C          12.3923    1.5600    0.0000 C.3     1  UNL1        0.0449
     36 C          14.1244   -2.4400    0.0000 C.3     1  UNL1       -0.0430
     37 C          24.5167    1.5600    0.0000 C.2     1  UNL1       -0.0879
     38 C          25.3827    2.0600    0.0000 C.2     1  UNL1       -0.0879
     39 C          27.9808    7.5600    0.0000 C.3     1  UNL1       -0.0559
     40 C          12.3923   -5.4400    0.0000 C.3     1  UNL1       -0.0496
     41 C           2.8660   -3.9400    0.0000 C.3     1  UNL1       -0.0559
     42 C           6.3301    2.0600    0.0000 C.2     1  UNL1       -0.0879
     43 C           5.4641    1.5600    0.0000 C.2     1  UNL1       -0.0879
     44 C          15.8564    1.5600    0.0000 C.3     1  UNL1        0.1706
     45 C          14.1244   -1.4400    0.0000 C.3     1  UNL1        0.0449
     46 C          17.5885    1.5600    0.0000 C.2     1  UNL1        0.3075
     47 C          11.5263   -5.9400    0.0000 C.3     1  UNL1       -0.0348
     48 C          14.9904    2.0600    0.0000 C.3     1  UNL1        0.1325
     49 C          15.8564    0.5600    0.0000 C.3     1  UNL1        0.1325
     50 C          13.2583    2.0600    0.0000 C.2     1  UNL1        0.3072
     51 C          28.8468    8.0600    0.0000 C.3     1  UNL1       -0.0653
     52 C           2.0000   -4.4400    0.0000 C.3     1  UNL1       -0.0653
     53 C          14.9904   -0.9400    0.0000 C.2     1  UNL1        0.3072
     54 C          11.5263   -6.9400    0.0000 C.2     1  UNL1       -0.0876
     55 C          10.6603   -7.4400    0.0000 C.2     1  UNL1       -0.0842
     56 C           9.7942   -6.9400    0.0000 C.3     1  UNL1       -0.0165
     57 C           7.1962   -5.4400    0.0000 C.3     1  UNL1       -0.0496
     58 C           8.0622   -5.9400    0.0000 C.3     1  UNL1       -0.0348
     59 C           8.9282   -7.4400    0.0000 C.2     1  UNL1       -0.0842
     60 C           7.1962   -4.4400    0.0000 C.3     1  UNL1       -0.0530
     61 C           8.0622   -6.9400    0.0000 C.2     1  UNL1       -0.0876
     62 C           6.3301   -3.9400    0.0000 C.3     1  UNL1       -0.0559
     63 C           5.4641   -4.4400    0.0000 C.3     1  UNL1       -0.0653
     64 H          20.6540    1.0850    0.0000 H       1  UNL1        0.0265
     65 H          21.4511    1.0850    0.0000 H       1  UNL1        0.0265
     66 H          22.3171    2.5349    0.0000 H       1  UNL1        0.0265
     67 H          21.5201    2.5349    0.0000 H       1  UNL1        0.0265
     68 H          10.1928    2.5349    0.0000 H       1  UNL1        0.0265
     69 H           9.3957    2.5349    0.0000 H       1  UNL1        0.0265
     70 H          20.5851    2.5349    0.0000 H       1  UNL1        0.0265
     71 H          19.7880    2.5349    0.0000 H       1  UNL1        0.0265
     72 H           8.5297    1.0850    0.0000 H       1  UNL1        0.0265
     73 H           9.3267    1.0850    0.0000 H       1  UNL1        0.0265
     74 H          26.0367    5.1426    0.0000 H       1  UNL1        0.0265
     75 H          25.6381    4.4523    0.0000 H       1  UNL1        0.0265
     76 H          27.3268    4.4774    0.0000 H       1  UNL1        0.0265
     77 H          27.7253    5.1677    0.0000 H       1  UNL1        0.0265
     78 H          22.3861    1.0850    0.0000 H       1  UNL1        0.0268
     79 H          23.1831    1.0850    0.0000 H       1  UNL1        0.0268
     80 H           3.5200   -0.8574    0.0000 H       1  UNL1        0.0265
     81 H           3.1215   -1.5477    0.0000 H       1  UNL1        0.0265
     82 H           4.8101   -1.5226    0.0000 H       1  UNL1        0.0265
     83 H           5.2087   -0.8323    0.0000 H       1  UNL1        0.0265
     84 H          10.2617    1.0850    0.0000 H       1  UNL1        0.0265
     85 H          11.0588    1.0850    0.0000 H       1  UNL1        0.0265
     86 H           8.4607    2.5349    0.0000 H       1  UNL1        0.0268
     87 H           7.6636    2.5349    0.0000 H       1  UNL1        0.0268
     88 H          26.4608    2.9774    0.0000 H       1  UNL1        0.0268
     89 H          26.8593    3.6677    0.0000 H       1  UNL1        0.0268
     90 H          26.9027    6.6426    0.0000 H       1  UNL1        0.0265
     91 H          26.5042    5.9523    0.0000 H       1  UNL1        0.0265
     92 H           3.9441   -3.0226    0.0000 H       1  UNL1        0.0265
     93 H           4.3426   -2.3323    0.0000 H       1  UNL1        0.0265
     94 H           4.3860    0.6426    0.0000 H       1  UNL1        0.0268
     95 H           3.9875   -0.0477    0.0000 H       1  UNL1        0.0268
     96 H          18.9220    1.0850    0.0000 H       1  UNL1        0.0270
     97 H          19.7190    1.0850    0.0000 H       1  UNL1        0.0270
     98 H          11.9248    2.5349    0.0000 H       1  UNL1        0.0270
     99 H          11.1278    2.5349    0.0000 H       1  UNL1        0.0270
    100 H          24.0492    2.5349    0.0000 H       1  UNL1        0.0307
    101 H          23.2521    2.5349    0.0000 H       1  UNL1        0.0307
    102 H           6.7976    1.0850    0.0000 H       1  UNL1        0.0307
    103 H           7.5947    1.0850    0.0000 H       1  UNL1        0.0307
    104 H          25.1706    3.6426    0.0000 H       1  UNL1        0.0307
    105 H          24.7721    2.9523    0.0000 H       1  UNL1        0.0307
    106 H          28.1928    5.9774    0.0000 H       1  UNL1        0.0265
    107 H          28.5913    6.6677    0.0000 H       1  UNL1        0.0265
    108 H           2.6540   -2.3574    0.0000 H       1  UNL1        0.0265
    109 H           2.2554   -3.0477    0.0000 H       1  UNL1        0.0265
    110 H           5.6762   -0.0226    0.0000 H       1  UNL1        0.0307
    111 H           6.0747    0.6677    0.0000 H       1  UNL1        0.0307
    112 H          13.4704   -4.5226    0.0000 H       1  UNL1        0.0265
    113 H          13.8689   -3.8323    0.0000 H       1  UNL1        0.0265
    114 H          13.0463   -2.3574    0.0000 H       1  UNL1        0.0265
    115 H          12.6477   -3.0477    0.0000 H       1  UNL1        0.0265
    116 H          12.1803   -3.8574    0.0000 H       1  UNL1        0.0265
    117 H          11.7817   -4.5477    0.0000 H       1  UNL1        0.0265
    118 H          18.8530    2.5349    0.0000 H       1  UNL1        0.0377
    119 H          18.0560    2.5349    0.0000 H       1  UNL1        0.0377
    120 H          11.9938    1.0850    0.0000 H       1  UNL1        0.0377
    121 H          12.7908    1.0850    0.0000 H       1  UNL1        0.0377
    122 H          14.3364   -3.0226    0.0000 H       1  UNL1        0.0270
    123 H          14.7349   -2.3323    0.0000 H       1  UNL1        0.0270
    124 H          24.5167    0.9400    0.0000 H       1  UNL1        0.0569
    125 H          25.9196    1.7500    0.0000 H       1  UNL1        0.0569
    126 H          12.6044   -6.0226    0.0000 H       1  UNL1        0.0268
    127 H          13.0029   -5.3323    0.0000 H       1  UNL1        0.0268
    128 H          27.7687    8.1426    0.0000 H       1  UNL1        0.0263
    129 H          27.3702    7.4523    0.0000 H       1  UNL1        0.0263
    130 H           3.0781   -4.5226    0.0000 H       1  UNL1        0.0263
    131 H           3.4766   -3.8323    0.0000 H       1  UNL1        0.0263
    132 H           6.3301    2.6800    0.0000 H       1  UNL1        0.0569
    133 H           4.9272    1.8700    0.0000 H       1  UNL1        0.0569
    134 H          16.3933    1.2500    0.0000 H       1  UNL1        0.0803
    135 H          13.9123   -0.8574    0.0000 H       1  UNL1        0.0377
    136 H          13.5138   -1.5477    0.0000 H       1  UNL1        0.0377
    137 H          11.3142   -5.3574    0.0000 H       1  UNL1        0.0307
    138 H          10.9157   -6.0477    0.0000 H       1  UNL1        0.0307
    139 H          15.3889    2.5349    0.0000 H       1  UNL1        0.0736
    140 H          14.5919    2.5349    0.0000 H       1  UNL1        0.0736
    141 H          16.0685   -0.0226    0.0000 H       1  UNL1        0.0736
    142 H          16.4670    0.6677    0.0000 H       1  UNL1        0.0736
    143 H          29.1568    7.5231    0.0000 H       1  UNL1        0.0230
    144 H          29.3837    8.3700    0.0000 H       1  UNL1        0.0230
    145 H          28.5368    8.5969    0.0000 H       1  UNL1        0.0230
    146 H           1.6900   -3.9031    0.0000 H       1  UNL1        0.0230
    147 H           1.4631   -4.7500    0.0000 H       1  UNL1        0.0230
    148 H           2.3100   -4.9769    0.0000 H       1  UNL1        0.0230
    149 H          12.0632   -7.2500    0.0000 H       1  UNL1        0.0569
    150 H          10.6603   -8.0600    0.0000 H       1  UNL1        0.0572
    151 H          10.1928   -6.4650    0.0000 H       1  UNL1        0.0350
    152 H           9.3957   -6.4650    0.0000 H       1  UNL1        0.0350
    153 H           6.5856   -5.3323    0.0000 H       1  UNL1        0.0268
    154 H           6.9841   -6.0226    0.0000 H       1  UNL1        0.0268
    155 H           8.6728   -6.0477    0.0000 H       1  UNL1        0.0307
    156 H           8.2742   -5.3574    0.0000 H       1  UNL1        0.0307
    157 H           8.9282   -8.0600    0.0000 H       1  UNL1        0.0572
    158 H           7.8067   -4.5477    0.0000 H       1  UNL1        0.0265
    159 H           7.4082   -3.8574    0.0000 H       1  UNL1        0.0265
    160 H           7.5252   -7.2500    0.0000 H       1  UNL1        0.0569
    161 H           6.7287   -3.4650    0.0000 H       1  UNL1        0.0263
    162 H           5.9316   -3.4650    0.0000 H       1  UNL1        0.0263
    163 H           5.1541   -3.9031    0.0000 H       1  UNL1        0.0230
    164 H           4.9272   -4.7500    0.0000 H       1  UNL1        0.0230
    165 H           5.7741   -4.9769    0.0000 H       1  UNL1        0.0230
@<TRIPOS>BOND
     1     1    44    1
     2     1    46    1
     3     2    48    1
     4     2    50    1
     5     3    49    1
     6     3    53    1
     7     4    46    2
     8     5    50    2
     9     6    53    2
    10     7     8    1
    11     7    10    1
    12     7    64    1
    13     7    65    1
    14     8    14    1
    15     8    66    1
    16     8    67    1
    17     9    11    1
    18     9    17    1
    19     9    68    1
    20     9    69    1
    21    10    23    1
    22    10    70    1
    23    10    71    1
    24    11    18    1
    25    11    72    1
    26    11    73    1
    27    12    13    1
    28    12    19    1
    29    12    74    1
    30    12    75    1
    31    13    20    1
    32    13    76    1
    33    13    77    1
    34    14    25    1
    35    14    78    1
    36    14    79    1
    37    15    16    1
    38    15    21    1
    39    15    80    1
    40    15    81    1
    41    16    22    1
    42    16    82    1
    43    16    83    1
    44    17    24    1
    45    17    84    1
    46    17    85    1
    47    18    26    1
    48    18    86    1
    49    18    87    1
    50    19    27    1
    51    19    88    1
    52    19    89    1
    53    20    28    1
    54    20    90    1
    55    20    91    1
    56    21    29    1
    57    21    92    1
    58    21    93    1
    59    22    30    1
    60    22    94    1
    61    22    95    1
    62    23    33    1
    63    23    96    1
    64    23    97    1
    65    24    35    1
    66    24    98    1
    67    24    99    1
    68    25    37    1
    69    25   100    1
    70    25   101    1
    71    26    42    1
    72    26   102    1
    73    26   103    1
    74    27    38    1
    75    27   104    1
    76    27   105    1
    77    28    39    1
    78    28   106    1
    79    28   107    1
    80    29    41    1
    81    29   108    1
    82    29   109    1
    83    30    43    1
    84    30   110    1
    85    30   111    1
    86    31    32    1
    87    31    34    1
    88    31   112    1
    89    31   113    1
    90    32    36    1
    91    32   114    1
    92    32   115    1
    93    33    46    1
    94    33   118    1
    95    33   119    1
    96    34    40    1
    97    34   116    1
    98    34   117    1
    99    35    50    1
   100    35   120    1
   101    35   121    1
   102    36    45    1
   103    36   122    1
   104    36   123    1
   105    37    38    2
   106    37   124    1
   107    38   125    1
   108    39    51    1
   109    39   128    1
   110    39   129    1
   111    40    47    1
   112    40   126    1
   113    40   127    1
   114    41    52    1
   115    41   130    1
   116    41   131    1
   117    42    43    2
   118    42   132    1
   119    43   133    1
   120    44    48    1
   121    44    49    1
   122    44   134    1
   123    45    53    1
   124    45   135    1
   125    45   136    1
   126    47    54    1
   127    47   137    1
   128    47   138    1
   129    48   139    1
   130    48   140    1
   131    49   141    1
   132    49   142    1
   133    51   143    1
   134    51   144    1
   135    51   145    1
   136    52   146    1
   137    52   147    1
   138    52   148    1
   139    54    55    2
   140    54   149    1
   141    55    56    1
   142    55   150    1
   143    56    59    1
   144    56   151    1
   145    56   152    1
   146    57    58    1
   147    57    60    1
   148    57   153    1
   149    57   154    1
   150    58    61    1
   151    58   155    1
   152    58   156    1
   153    59    61    2
   154    59   157    1
   155    60    62    1
   156    60   158    1
   157    60   159    1
   158    61   160    1
   159    62    63    1
   160    62   161    1
   161    62   162    1
   162    63   163    1
   163    63   164    1
   164    63   165    1
