@<TRIPOS>MOLECULE
IMPHY000277
 29 29 0 0 0
SMALL
GASTEIGER

@<TRIPOS>ATOM
      1 O           2.8660    0.7500    0.0000 O.3     1  UNL1       -0.4948
      2 O           6.3301   -1.2500    0.0000 O.3     1  UNL1       -0.5065
      3 C           4.5981    1.7500    0.0000 C.3     1  UNL1       -0.0179
      4 C           4.5981    0.7500    0.0000 C.ar    1  UNL1        0.0003
      5 C           3.7320    0.2500    0.0000 C.ar    1  UNL1        0.1240
      6 C           5.4641    2.2500    0.0000 C.3     1  UNL1       -0.0585
      7 C           3.7320    2.2500    0.0000 C.3     1  UNL1       -0.0585
      8 C           5.4641    0.2500    0.0000 C.ar    1  UNL1       -0.0130
      9 C           4.5981   -1.2500    0.0000 C.ar    1  UNL1       -0.0056
     10 C           3.7320   -0.7500    0.0000 C.ar    1  UNL1       -0.0133
     11 C           5.4641   -0.7500    0.0000 C.ar    1  UNL1        0.1202
     12 C           4.5981   -2.2500    0.0000 C.3     1  UNL1       -0.0361
     13 C           2.0000    0.2500    0.0000 C.3     1  UNL1        0.0788
     14 H           4.5981    2.3700    0.0000 H       1  UNL1        0.0345
     15 H           5.7741    1.7131    0.0000 H       1  UNL1        0.0235
     16 H           6.0010    2.5600    0.0000 H       1  UNL1        0.0235
     17 H           5.1541    2.7869    0.0000 H       1  UNL1        0.0235
     18 H           4.0420    2.7869    0.0000 H       1  UNL1        0.0235
     19 H           3.1951    2.5600    0.0000 H       1  UNL1        0.0235
     20 H           3.4220    1.7131    0.0000 H       1  UNL1        0.0235
     21 H           6.0010    0.5600    0.0000 H       1  UNL1        0.0658
     22 H           3.1951   -1.0600    0.0000 H       1  UNL1        0.0658
     23 H           3.9781   -2.2500    0.0000 H       1  UNL1        0.0279
     24 H           4.5981   -2.8700    0.0000 H       1  UNL1        0.0279
     25 H           5.2181   -2.2500    0.0000 H       1  UNL1        0.0279
     26 H           6.8671   -0.9400    0.0000 H       1  UNL1        0.2921
     27 H           1.6900    0.7869    0.0000 H       1  UNL1        0.0660
     28 H           1.4631   -0.0600    0.0000 H       1  UNL1        0.0660
     29 H           2.3100   -0.2869    0.0000 H       1  UNL1        0.0660
@<TRIPOS>BOND
     1     1     5    1
     2     1    13    1
     3     2    11    1
     4     2    26    1
     5     3     4    1
     6     3     6    1
     7     3     7    1
     8     3    14    1
     9     4     5   ar
    10     4     8   ar
    11     5    10   ar
    12     6    15    1
    13     6    16    1
    14     6    17    1
    15     7    18    1
    16     7    19    1
    17     7    20    1
    18     8    11   ar
    19     8    21    1
    20     9    10   ar
    21     9    11   ar
    22     9    12    1
    23    10    22    1
    24    12    23    1
    25    12    24    1
    26    12    25    1
    27    13    27    1
    28    13    28    1
    29    13    29    1
