@<TRIPOS>MOLECULE
IMPHY017146
 56 57 0 0 0
SMALL
GASTEIGER

@<TRIPOS>ATOM
      1 O           4.5981   -3.3450    0.0000 O.3     1  UNL1       -0.5062
      2 C           4.5981    0.6550    0.0000 C.3     1  UNL1        0.0151
      3 C           6.3301   -2.3450    0.0000 C.3     1  UNL1       -0.0092
      4 C           2.8660   -2.3450    0.0000 C.3     1  UNL1       -0.0092
      5 C           4.5981   -0.3450    0.0000 C.ar    1  UNL1       -0.0366
      6 C           5.4641   -1.8450    0.0000 C.ar    1  UNL1       -0.0000
      7 C           3.7320   -1.8450    0.0000 C.ar    1  UNL1       -0.0000
      8 C           4.5981   -2.3450    0.0000 C.ar    1  UNL1        0.1242
      9 C           5.4641   -0.8450    0.0000 C.ar    1  UNL1       -0.0506
     10 C           3.7320   -0.8450    0.0000 C.ar    1  UNL1       -0.0506
     11 C           4.5981    1.6550    0.0000 C.ar    1  UNL1       -0.0374
     12 C           5.5981    0.6550    0.0000 C.3     1  UNL1       -0.0517
     13 C           3.5981    0.6550    0.0000 C.3     1  UNL1       -0.0517
     14 C           7.1962   -2.8450    0.0000 C.3     1  UNL1       -0.0559
     15 C           6.8301   -1.4790    0.0000 C.3     1  UNL1       -0.0559
     16 C           5.8301   -3.2110    0.0000 C.3     1  UNL1       -0.0559
     17 C           2.0000   -2.8450    0.0000 C.3     1  UNL1       -0.0559
     18 C           2.3660   -1.4790    0.0000 C.3     1  UNL1       -0.0559
     19 C           3.3660   -3.2110    0.0000 C.3     1  UNL1       -0.0559
     20 C           5.4641    2.1550    0.0000 C.ar    1  UNL1       -0.0577
     21 C           3.7320    2.1550    0.0000 C.ar    1  UNL1       -0.0577
     22 C           5.4641    3.1550    0.0000 C.ar    1  UNL1       -0.0615
     23 C           3.7320    3.1550    0.0000 C.ar    1  UNL1       -0.0615
     24 C           4.5981    3.6550    0.0000 C.ar    1  UNL1       -0.0617
     25 H           6.0010   -0.5350    0.0000 H       1  UNL1        0.0625
     26 H           3.1951   -0.5350    0.0000 H       1  UNL1        0.0625
     27 H           5.5981    0.0350    0.0000 H       1  UNL1        0.0241
     28 H           6.2181    0.6550    0.0000 H       1  UNL1        0.0241
     29 H           5.5981    1.2750    0.0000 H       1  UNL1        0.0241
     30 H           3.5981    1.2750    0.0000 H       1  UNL1        0.0241
     31 H           2.9781    0.6550    0.0000 H       1  UNL1        0.0241
     32 H           3.5981    0.0350    0.0000 H       1  UNL1        0.0241
     33 H           6.8862   -3.3819    0.0000 H       1  UNL1        0.0238
     34 H           7.7331   -3.1550    0.0000 H       1  UNL1        0.0238
     35 H           7.5062   -2.3081    0.0000 H       1  UNL1        0.0238
     36 H           7.3671   -1.7890    0.0000 H       1  UNL1        0.0238
     37 H           7.1401   -0.9420    0.0000 H       1  UNL1        0.0238
     38 H           6.2932   -1.1690    0.0000 H       1  UNL1        0.0238
     39 H           5.2932   -2.9010    0.0000 H       1  UNL1        0.0238
     40 H           5.5201   -3.7480    0.0000 H       1  UNL1        0.0238
     41 H           6.3671   -3.5210    0.0000 H       1  UNL1        0.0238
     42 H           1.6900   -2.3081    0.0000 H       1  UNL1        0.0238
     43 H           1.4631   -3.1550    0.0000 H       1  UNL1        0.0238
     44 H           2.3100   -3.3819    0.0000 H       1  UNL1        0.0238
     45 H           2.9030   -1.1690    0.0000 H       1  UNL1        0.0238
     46 H           2.0560   -0.9420    0.0000 H       1  UNL1        0.0238
     47 H           1.8291   -1.7890    0.0000 H       1  UNL1        0.0238
     48 H           2.8291   -3.5210    0.0000 H       1  UNL1        0.0238
     49 H           3.6760   -3.7480    0.0000 H       1  UNL1        0.0238
     50 H           3.9030   -2.9010    0.0000 H       1  UNL1        0.0238
     51 H           6.0010    1.8450    0.0000 H       1  UNL1        0.0621
     52 H           3.1951    1.8450    0.0000 H       1  UNL1        0.0621
     53 H           4.0611   -3.6550    0.0000 H       1  UNL1        0.2922
     54 H           6.0010    3.4650    0.0000 H       1  UNL1        0.0618
     55 H           3.1951    3.4650    0.0000 H       1  UNL1        0.0618
     56 H           4.5981    4.2750    0.0000 H       1  UNL1        0.0618
@<TRIPOS>BOND
     1     1     8    1
     2     1    53    1
     3     2     5    1
     4     2    11    1
     5     2    12    1
     6     2    13    1
     7     3     6    1
     8     3    14    1
     9     3    15    1
    10     3    16    1
    11     4     7    1
    12     4    17    1
    13     4    18    1
    14     4    19    1
    15     5     9   ar
    16     5    10   ar
    17     6     8   ar
    18     6     9   ar
    19     7     8   ar
    20     7    10   ar
    21     9    25    1
    22    10    26    1
    23    11    20   ar
    24    11    21   ar
    25    12    27    1
    26    12    28    1
    27    12    29    1
    28    13    30    1
    29    13    31    1
    30    13    32    1
    31    14    33    1
    32    14    34    1
    33    14    35    1
    34    15    36    1
    35    15    37    1
    36    15    38    1
    37    16    39    1
    38    16    40    1
    39    16    41    1
    40    17    42    1
    41    17    43    1
    42    17    44    1
    43    18    45    1
    44    18    46    1
    45    18    47    1
    46    19    48    1
    47    19    49    1
    48    19    50    1
    49    20    22   ar
    50    20    51    1
    51    21    23   ar
    52    21    52    1
    53    22    24   ar
    54    22    54    1
    55    23    24   ar
    56    23    55    1
    57    24    56    1
