@<TRIPOS>MOLECULE
IMPHY011223
 34 35 0 0 0
SMALL
GASTEIGER

@<TRIPOS>ATOM
      1 O           3.5000   -0.1200    0.0000 O.3     1  UNL1       -0.4612
      2 O           3.5000   -1.8520    0.0000 O.2     1  UNL1       -0.2512
      3 C           6.0388    0.3800    0.0000 C.3     1  UNL1       -0.0201
      4 C           6.0388   -0.6200    0.0000 C.3     1  UNL1       -0.0286
      5 C           6.9054   -0.1200    0.0000 C.3     1  UNL1       -0.0430
      6 C           5.0878   -0.9290    0.0000 C.3     1  UNL1       -0.0033
      7 C           5.0878    0.6891    0.0000 C.3     1  UNL1       -0.0092
      8 C           4.5000   -0.1200    0.0000 C.3     1  UNL1        0.1064
      9 C           6.0388    1.3800    0.0000 C.3     1  UNL1       -0.0407
     10 C           4.7788   -1.8800    0.0000 C.3     1  UNL1       -0.0588
     11 C           6.9049    1.8800    0.0000 C.3     1  UNL1       -0.0622
     12 C           5.1728    1.8800    0.0000 C.3     1  UNL1       -0.0622
     13 C           3.0000   -0.9860    0.0000 C.2     1  UNL1        0.3042
     14 C           2.0000   -0.9860    0.0000 C.3     1  UNL1        0.0332
     15 H           6.2909   -1.1864    0.0000 H       1  UNL1        0.0310
     16 H           7.3039   -0.5949    0.0000 H       1  UNL1        0.0274
     17 H           7.3039    0.3550    0.0000 H       1  UNL1        0.0274
     18 H           5.5262   -1.3674    0.0000 H       1  UNL1        0.0337
     19 H           5.3400    1.2554    0.0000 H       1  UNL1        0.0306
     20 H           4.5508    0.9991    0.0000 H       1  UNL1        0.0306
     21 H           4.2185    0.4325    0.0000 H       1  UNL1        0.0737
     22 H           6.0388    2.0000    0.0000 H       1  UNL1        0.0301
     23 H           4.1891   -1.6884    0.0000 H       1  UNL1        0.0234
     24 H           4.5872   -2.4697    0.0000 H       1  UNL1        0.0234
     25 H           5.3684   -2.0716    0.0000 H       1  UNL1        0.0234
     26 H           7.2149    1.3431    0.0000 H       1  UNL1        0.0233
     27 H           7.4418    2.1900    0.0000 H       1  UNL1        0.0233
     28 H           6.5949    2.4170    0.0000 H       1  UNL1        0.0233
     29 H           5.4828    2.4170    0.0000 H       1  UNL1        0.0233
     30 H           4.6359    2.1900    0.0000 H       1  UNL1        0.0233
     31 H           4.8628    1.3431    0.0000 H       1  UNL1        0.0233
     32 H           2.0000   -0.3660    0.0000 H       1  UNL1        0.0342
     33 H           1.3800   -0.9860    0.0000 H       1  UNL1        0.0342
     34 H           2.0000   -1.6060    0.0000 H       1  UNL1        0.0342
@<TRIPOS>BOND
     1     1     8    1
     2     1    13    1
     3     2    13    2
     4     3     4    1
     5     3     5    1
     6     3     7    1
     7     3     9    1
     8     4     5    1
     9     4     6    1
    10     4    15    1
    11     5    16    1
    12     5    17    1
    13     6     8    1
    14     6    10    1
    15     6    18    1
    16     7     8    1
    17     7    19    1
    18     7    20    1
    19     8    21    1
    20     9    11    1
    21     9    12    1
    22     9    22    1
    23    10    23    1
    24    10    24    1
    25    10    25    1
    26    11    26    1
    27    11    27    1
    28    11    28    1
    29    12    29    1
    30    12    30    1
    31    12    31    1
    32    13    14    1
    33    14    32    1
    34    14    33    1
    35    14    34    1
