@<TRIPOS>MOLECULE
IMPHY009891
 149 156 0 0 0
SMALL
GASTEIGER

@<TRIPOS>ATOM
      1 O           5.1247    2.6055    0.0000 O.3     1  UNL1       -0.3912
      2 O           6.8671   -1.4673    0.0000 O.3     1  UNL1       -0.3449
      3 O           8.6575    6.6364    0.0000 O.3     1  UNL1       -0.3915
      4 O           5.1350   -1.4673    0.0000 O.3     1  UNL1       -0.3405
      5 O           6.8671   -3.4673    0.0000 O.3     1  UNL1       -0.3378
      6 O           7.4222    9.2734    0.0000 O.3     1  UNL1       -0.3915
      7 O           5.1350   -4.4673    0.0000 O.3     1  UNL1       -0.3864
      8 O           3.4030   -3.4673    0.0000 O.3     1  UNL1       -0.3865
      9 O           2.5369   -1.9673    0.0000 O.3     1  UNL1       -0.3924
     10 O           6.0010   -4.9673    0.0000 O.3     1  UNL1       -0.3405
     11 O           8.5991   -4.4673    0.0000 O.3     1  UNL1       -0.3841
     12 O           8.5991   -6.4673    0.0000 O.3     1  UNL1       -0.3401
     13 O           6.8671   -7.4673    0.0000 O.3     1  UNL1       -0.3865
     14 O           4.2690   -5.9673    0.0000 O.3     1  UNL1       -0.3924
     15 O           7.7331   -7.9673    0.0000 O.3     1  UNL1       -0.3405
     16 O          10.3312   -7.4673    0.0000 O.3     1  UNL1       -0.3841
     17 O          10.3312   -9.4673    0.0000 O.3     1  UNL1       -0.3864
     18 O           8.5991  -10.4673    0.0000 O.3     1  UNL1       -0.3865
     19 O           6.8671  -10.4673    0.0000 O.3     1  UNL1       -0.3924
     20 C           6.8948    2.6018    0.0000 C.3     1  UNL1        0.0065
     21 C           6.8910    1.6018    0.0000 C.3     1  UNL1       -0.0169
     22 C           6.0264    2.1052    0.0000 C.3     1  UNL1       -0.0377
     23 C           7.7628    3.0985    0.0000 C.3     1  UNL1       -0.0265
     24 C           7.7551    1.0985    0.0000 C.3     1  UNL1       -0.0272
     25 C           7.7829    4.1399    0.0000 C.3     1  UNL1       -0.0205
     26 C           5.9868    3.1122    0.0000 C.3     1  UNL1        0.0622
     27 C           6.8869    4.6711    0.0000 C.3     1  UNL1       -0.0186
     28 C           5.9790    1.0985    0.0000 C.3     1  UNL1       -0.0441
     29 C           8.6269    2.5952    0.0000 C.3     1  UNL1       -0.0488
     30 C           5.9828    4.1538    0.0000 C.3     1  UNL1       -0.0200
     31 C           8.6230    1.5952    0.0000 C.3     1  UNL1       -0.0488
     32 C           7.7671    0.0569    0.0000 C.3     1  UNL1       -0.0052
     33 C           7.1165    5.6808    0.0000 C.3     1  UNL1       -0.0064
     34 C           8.5586    4.8259    0.0000 C.3     1  UNL1       -0.0204
     35 C           5.9670    0.0569    0.0000 C.3     1  UNL1       -0.0255
     36 C           6.8671   -0.4673    0.0000 C.3     1  UNL1        0.0672
     37 C           8.1475    5.7763    0.0000 C.3     1  UNL1        0.0593
     38 C           8.6430    3.6300    0.0000 C.3     1  UNL1       -0.0587
     39 C           6.0267    5.1811    0.0000 C.3     1  UNL1       -0.0586
     40 C           6.4573    6.4328    0.0000 C.3     1  UNL1       -0.0381
     41 C           8.7671    0.0647    0.0000 C.3     1  UNL1       -0.0572
     42 C           8.2738   -0.8052    0.0000 C.3     1  UNL1       -0.0572
     43 C           6.7789    7.3797    0.0000 C.3     1  UNL1       -0.0478
     44 C           5.4765    6.2379    0.0000 C.3     1  UNL1       -0.0621
     45 C           6.0010   -1.9673    0.0000 C.3     1  UNL1        0.1886
     46 C           6.1197    8.1316    0.0000 C.3     1  UNL1       -0.0264
     47 C           6.0010   -2.9673    0.0000 C.3     1  UNL1        0.1406
     48 C           6.4414    9.0785    0.0000 C.3     1  UNL1        0.0576
     49 C           5.1350   -3.4673    0.0000 C.3     1  UNL1        0.1144
     50 C           4.2690   -1.9673    0.0000 C.3     1  UNL1        0.1130
     51 C           4.2690   -2.9673    0.0000 C.3     1  UNL1        0.1119
     52 C           5.7822    9.8305    0.0000 C.3     1  UNL1       -0.0206
     53 C           3.4030   -1.4673    0.0000 C.3     1  UNL1        0.0730
     54 C           6.8671   -4.4673    0.0000 C.3     1  UNL1        0.1886
     55 C           6.1038   10.7773    0.0000 C.3     1  UNL1       -0.0603
     56 C           4.8013    9.6356    0.0000 C.3     1  UNL1       -0.0603
     57 C           7.7331   -4.9673    0.0000 C.3     1  UNL1        0.1345
     58 C           7.7331   -5.9673    0.0000 C.3     1  UNL1        0.1206
     59 C           6.0010   -5.9673    0.0000 C.3     1  UNL1        0.1130
     60 C           6.8671   -6.4673    0.0000 C.3     1  UNL1        0.1123
     61 C           5.1350   -6.4673    0.0000 C.3     1  UNL1        0.0730
     62 C           8.5991   -7.4673    0.0000 C.3     1  UNL1        0.1884
     63 C           9.4651   -7.9673    0.0000 C.3     1  UNL1        0.1341
     64 C           9.4651   -8.9673    0.0000 C.3     1  UNL1        0.1141
     65 C           7.7331   -8.9673    0.0000 C.3     1  UNL1        0.1130
     66 C           8.5991   -9.4673    0.0000 C.3     1  UNL1        0.1119
     67 C           6.8671   -9.4673    0.0000 C.3     1  UNL1        0.0730
     68 H           5.6297    2.5817    0.0000 H       1  UNL1        0.0277
     69 H           5.6261    1.6317    0.0000 H       1  UNL1        0.0277
     70 H           8.5038    3.5150    0.0000 H       1  UNL1        0.0313
     71 H           8.4928    0.6763    0.0000 H       1  UNL1        0.0312
     72 H           5.4481    3.4191    0.0000 H       1  UNL1        0.0599
     73 H           5.7768    1.6846    0.0000 H       1  UNL1        0.0272
     74 H           5.3670    0.9995    0.0000 H       1  UNL1        0.0272
     75 H           9.2370    2.4851    0.0000 H       1  UNL1        0.0268
     76 H           8.8412    3.1769    0.0000 H       1  UNL1        0.0268
     77 H           5.7715    4.7367    0.0000 H       1  UNL1        0.0296
     78 H           5.3724    4.0454    0.0000 H       1  UNL1        0.0296
     79 H           8.8328    1.0117    0.0000 H       1  UNL1        0.0268
     80 H           9.2340    1.7005    0.0000 H       1  UNL1        0.0268
     81 H           7.4313    6.4704    0.0000 H       1  UNL1        0.0334
     82 H           8.9182    4.3208    0.0000 H       1  UNL1        0.0296
     83 H           9.0986    5.1304    0.0000 H       1  UNL1        0.0296
     84 H           5.3574    0.1701    0.0000 H       1  UNL1        0.0290
     85 H           5.7512   -0.5243    0.0000 H       1  UNL1        0.0290
     86 H           7.4046   -0.7763    0.0000 H       1  UNL1        0.0602
     87 H           8.7663    5.7369    0.0000 H       1  UNL1        0.0596
     88 H           8.3269    3.0966    0.0000 H       1  UNL1        0.0235
     89 H           9.1764    3.3138    0.0000 H       1  UNL1        0.0235
     90 H           8.9592    4.1633    0.0000 H       1  UNL1        0.0235
     91 H           6.3429    5.7144    0.0000 H       1  UNL1        0.0235
     92 H           5.4934    5.4973    0.0000 H       1  UNL1        0.0235
     93 H           5.7105    4.6478    0.0000 H       1  UNL1        0.0235
     94 H           6.2579    5.8458    0.0000 H       1  UNL1        0.0302
     95 H           4.5854    2.9114    0.0000 H       1  UNL1        0.2098
     96 H           7.7393   -1.1193    0.0000 H       1  UNL1        0.0236
     97 H           8.5879   -1.3397    0.0000 H       1  UNL1        0.0236
     98 H           8.8083   -0.4911    0.0000 H       1  UNL1        0.0236
     99 H           8.7719   -0.5553    0.0000 H       1  UNL1        0.0236
    100 H           9.3871    0.0694    0.0000 H       1  UNL1        0.0236
    101 H           8.7623    0.6846    0.0000 H       1  UNL1        0.0236
    102 H           9.2775    6.6293    0.0000 H       1  UNL1        0.2098
    103 H           7.3224    7.0813    0.0000 H       1  UNL1        0.0269
    104 H           7.1671    7.8631    0.0000 H       1  UNL1        0.0269
    105 H           5.3556    6.8460    0.0000 H       1  UNL1        0.0233
    106 H           4.8683    6.1171    0.0000 H       1  UNL1        0.0233
    107 H           5.5973    5.6298    0.0000 H       1  UNL1        0.0233
    108 H           6.0010   -1.3473    0.0000 H       1  UNL1        0.0938
    109 H           5.5762    8.4300    0.0000 H       1  UNL1        0.0290
    110 H           5.7316    7.6482    0.0000 H       1  UNL1        0.0290
    111 H           6.0010   -3.5873    0.0000 H       1  UNL1        0.0675
    112 H           6.6408    9.6656    0.0000 H       1  UNL1        0.0596
    113 H           4.5981   -3.7773    0.0000 H       1  UNL1        0.0648
    114 H           4.2690   -1.3473    0.0000 H       1  UNL1        0.0647
    115 H           3.7320   -2.6573    0.0000 H       1  UNL1        0.0647
    116 H           5.5828    9.2434    0.0000 H       1  UNL1        0.0320
    117 H           7.6216    9.8604    0.0000 H       1  UNL1        0.2098
    118 H           3.8015   -0.9924    0.0000 H       1  UNL1        0.0584
    119 H           3.0044   -0.9924    0.0000 H       1  UNL1        0.0584
    120 H           4.5981   -4.7773    0.0000 H       1  UNL1        0.2100
    121 H           7.4040   -4.1573    0.0000 H       1  UNL1        0.0938
    122 H           4.6805   10.2437    0.0000 H       1  UNL1        0.0233
    123 H           4.1932    9.5148    0.0000 H       1  UNL1        0.0233
    124 H           6.6908   10.5779    0.0000 H       1  UNL1        0.0233
    125 H           6.3032   11.3644    0.0000 H       1  UNL1        0.0233
    126 H           5.5167   10.9768    0.0000 H       1  UNL1        0.0233
    127 H           4.9222    9.0275    0.0000 H       1  UNL1        0.0233
    128 H           3.4030   -4.0873    0.0000 H       1  UNL1        0.2100
    129 H           8.2700   -5.2773    0.0000 H       1  UNL1        0.0671
    130 H           2.0000   -1.6573    0.0000 H       1  UNL1        0.2095
    131 H           7.7331   -6.5873    0.0000 H       1  UNL1        0.0651
    132 H           5.4641   -5.6573    0.0000 H       1  UNL1        0.0647
    133 H           6.3301   -6.7773    0.0000 H       1  UNL1        0.0647
    134 H           8.5991   -3.8473    0.0000 H       1  UNL1        0.2101
    135 H           4.7365   -6.9423    0.0000 H       1  UNL1        0.0584
    136 H           5.5335   -6.9423    0.0000 H       1  UNL1        0.0584
    137 H           6.3301   -7.7773    0.0000 H       1  UNL1        0.2100
    138 H           9.1360   -7.1573    0.0000 H       1  UNL1        0.0938
    139 H           3.7320   -6.2773    0.0000 H       1  UNL1        0.2095
    140 H          10.0021   -8.2773    0.0000 H       1  UNL1        0.0671
    141 H           9.4651   -9.5873    0.0000 H       1  UNL1        0.0648
    142 H           7.1962   -8.6573    0.0000 H       1  UNL1        0.0647
    143 H           8.0622   -9.7773    0.0000 H       1  UNL1        0.0647
    144 H          10.3312   -6.8473    0.0000 H       1  UNL1        0.2101
    145 H           6.6550   -8.8847    0.0000 H       1  UNL1        0.0584
    146 H           6.2565   -9.5750    0.0000 H       1  UNL1        0.0584
    147 H          10.3312  -10.0873    0.0000 H       1  UNL1        0.2100
    148 H           9.1360  -10.7773    0.0000 H       1  UNL1        0.2100
    149 H           6.3301  -10.7773    0.0000 H       1  UNL1        0.2095
@<TRIPOS>BOND
     1    26     1    1
     2     1    95    1
     3    36     2    1
     4    45     2    1
     5    37     3    1
     6     3   102    1
     7     4    45    1
     8     4    50    1
     9    47     5    1
    10    54     5    1
    11    48     6    1
    12     6   117    1
    13    49     7    1
    14     7   120    1
    15    51     8    1
    16     8   128    1
    17     9    53    1
    18     9   130    1
    19    10    54    1
    20    10    59    1
    21    57    11    1
    22    11   134    1
    23    58    12    1
    24    62    12    1
    25    60    13    1
    26    13   137    1
    27    14    61    1
    28    14   139    1
    29    15    62    1
    30    15    65    1
    31    63    16    1
    32    16   144    1
    33    64    17    1
    34    17   147    1
    35    66    18    1
    36    18   148    1
    37    19    67    1
    38    19   149    1
    39    20    21    1
    40    20    22    1
    41    20    23    1
    42    20    26    1
    43    21    22    1
    44    21    24    1
    45    21    28    1
    46    22    68    1
    47    22    69    1
    48    23    25    1
    49    23    29    1
    50    23    70    1
    51    24    31    1
    52    24    32    1
    53    24    71    1
    54    25    27    1
    55    25    34    1
    56    25    38    1
    57    26    30    1
    58    26    72    1
    59    27    30    1
    60    27    33    1
    61    27    39    1
    62    28    35    1
    63    28    73    1
    64    28    74    1
    65    29    31    1
    66    29    75    1
    67    29    76    1
    68    30    77    1
    69    30    78    1
    70    31    79    1
    71    31    80    1
    72    32    36    1
    73    32    41    1
    74    32    42    1
    75    33    37    1
    76    33    40    1
    77    33    81    1
    78    34    37    1
    79    34    82    1
    80    34    83    1
    81    35    36    1
    82    35    84    1
    83    35    85    1
    84    36    86    1
    85    37    87    1
    86    38    88    1
    87    38    89    1
    88    38    90    1
    89    39    91    1
    90    39    92    1
    91    39    93    1
    92    40    43    1
    93    40    44    1
    94    40    94    1
    95    41    99    1
    96    41   100    1
    97    41   101    1
    98    42    96    1
    99    42    97    1
   100    42    98    1
   101    43    46    1
   102    43   103    1
   103    43   104    1
   104    44   105    1
   105    44   106    1
   106    44   107    1
   107    45    47    1
   108    45   108    1
   109    46    48    1
   110    46   109    1
   111    46   110    1
   112    47    49    1
   113    47   111    1
   114    48    52    1
   115    48   112    1
   116    49    51    1
   117    49   113    1
   118    50    51    1
   119    50    53    1
   120    50   114    1
   121    51   115    1
   122    52    55    1
   123    52    56    1
   124    52   116    1
   125    53   118    1
   126    53   119    1
   127    54    57    1
   128    54   121    1
   129    55   124    1
   130    55   125    1
   131    55   126    1
   132    56   122    1
   133    56   123    1
   134    56   127    1
   135    57    58    1
   136    57   129    1
   137    58    60    1
   138    58   131    1
   139    59    60    1
   140    59    61    1
   141    59   132    1
   142    60   133    1
   143    61   135    1
   144    61   136    1
   145    62    63    1
   146    62   138    1
   147    63    64    1
   148    63   140    1
   149    64    66    1
   150    64   141    1
   151    65    66    1
   152    65    67    1
   153    65   142    1
   154    66   143    1
   155    67   145    1
   156    67   146    1
