@<TRIPOS>MOLECULE
IMPHY011112
 145 152 0 0 0
SMALL
GASTEIGER

@<TRIPOS>ATOM
      1 O           6.8671   -2.1946    0.0000 O.3     1  UNL1       -0.3448
      2 O           8.6424    7.1599    0.0000 O.3     1  UNL1       -0.3887
      3 O           6.8270    8.1988    0.0000 O.3     1  UNL1       -0.3887
      4 O           9.3112   -1.5029    0.0000 O.3     1  UNL1       -0.3944
      5 O           5.1350   -2.1946    0.0000 O.3     1  UNL1       -0.3315
      6 O           6.8671   -4.1946    0.0000 O.3     1  UNL1       -0.3377
      7 O           5.1350   -5.1946    0.0000 O.3     1  UNL1       -0.3864
      8 O           3.4030   -4.1946    0.0000 O.3     1  UNL1       -0.3860
      9 O           6.0010   -5.6946    0.0000 O.3     1  UNL1       -0.3405
     10 O           2.5369   -2.6946    0.0000 O.3     1  UNL1       -0.4788
     11 O           3.4030   -1.1946    0.0000 O.2     1  UNL1       -0.2480
     12 O           8.5991   -5.1946    0.0000 O.3     1  UNL1       -0.3378
     13 O           8.5991   -7.1946    0.0000 O.3     1  UNL1       -0.3864
     14 O           6.8671   -8.1946    0.0000 O.3     1  UNL1       -0.3865
     15 O           9.4651   -6.6946    0.0000 O.3     1  UNL1       -0.3431
     16 O           5.1350   -8.1946    0.0000 O.3     1  UNL1       -0.3924
     17 O          10.3312   -4.1946    0.0000 O.3     1  UNL1       -0.3841
     18 O          12.0632   -5.1946    0.0000 O.3     1  UNL1       -0.3864
     19 O          12.0632   -7.1946    0.0000 O.3     1  UNL1       -0.3866
     20 C           7.7681    2.5056    0.0000 C.3     1  UNL1       -0.0194
     21 C           6.9040    2.0023    0.0000 C.3     1  UNL1       -0.0257
     22 C           6.8920    0.9607    0.0000 C.3     1  UNL1       -0.0249
     23 C           7.7643    3.5056    0.0000 C.3     1  UNL1       -0.0051
     24 C           7.7920    0.4364    0.0000 C.3     1  UNL1       -0.0255
     25 C           8.6801    2.0023    0.0000 C.3     1  UNL1       -0.0463
     26 C           6.8963    4.0023    0.0000 C.2     1  UNL1       -0.0633
     27 C           7.8046   -0.6485    0.0000 C.3     1  UNL1        0.0206
     28 C           8.6921    0.9607    0.0000 C.3     1  UNL1       -0.0485
     29 C           6.8762    5.0437    0.0000 C.3     1  UNL1       -0.0110
     30 C           7.7722    5.5749    0.0000 C.3     1  UNL1        0.0029
     31 C           8.6723    4.0160    0.0000 C.3     1  UNL1       -0.0428
     32 C           6.0361    2.4989    0.0000 C.3     1  UNL1       -0.0306
     33 C           5.9421    0.4364    0.0000 C.3     1  UNL1       -0.0447
     34 C           8.6763    5.0576    0.0000 C.3     1  UNL1       -0.0438
     35 C           8.7522    2.6831    0.0000 C.3     1  UNL1       -0.0585
     36 C           6.8671   -1.1946    0.0000 C.3     1  UNL1        0.0695
     37 C           6.0322    3.4989    0.0000 C.2     1  UNL1       -0.0836
     38 C           6.0279    1.4641    0.0000 C.3     1  UNL1       -0.0590
     39 C           5.9295   -0.6485    0.0000 C.3     1  UNL1       -0.0254
     40 C           8.7497    3.3358    0.0000 C.3     1  UNL1       -0.0553
     41 C           5.9223    5.5607    0.0000 C.3     1  UNL1       -0.0383
     42 C           7.7764    6.6599    0.0000 C.3     1  UNL1        0.0874
     43 C           5.9014    6.6454    0.0000 C.3     1  UNL1       -0.0059
     44 C           6.8347    7.1988    0.0000 C.3     1  UNL1        0.0867
     45 C           8.8046   -0.6408    0.0000 C.3     1  UNL1        0.0522
     46 C           8.3113   -1.5106    0.0000 C.3     1  UNL1       -0.0548
     47 C           8.6324    6.0849    0.0000 C.3     1  UNL1       -0.0566
     48 C           5.3881    7.5037    0.0000 C.3     1  UNL1       -0.0574
     49 C           4.9015    6.6300    0.0000 C.3     1  UNL1       -0.0574
     50 C           6.0010   -2.6946    0.0000 C.3     1  UNL1        0.1892
     51 C           6.0010   -3.6946    0.0000 C.3     1  UNL1        0.1407
     52 C           5.1350   -4.1946    0.0000 C.3     1  UNL1        0.1149
     53 C           4.2690   -2.6946    0.0000 C.3     1  UNL1        0.1859
     54 C           4.2690   -3.6946    0.0000 C.3     1  UNL1        0.1202
     55 C           6.8671   -5.1946    0.0000 C.3     1  UNL1        0.1889
     56 C           3.4030   -2.1946    0.0000 C.2     1  UNL1        0.3367
     57 C           7.7331   -5.6946    0.0000 C.3     1  UNL1        0.1406
     58 C           7.7331   -6.6946    0.0000 C.3     1  UNL1        0.1144
     59 C           6.0010   -6.6946    0.0000 C.3     1  UNL1        0.1130
     60 C           6.8671   -7.1946    0.0000 C.3     1  UNL1        0.1119
     61 C           5.1350   -7.1946    0.0000 C.3     1  UNL1        0.0730
     62 C           9.4651   -5.6946    0.0000 C.3     1  UNL1        0.1884
     63 C          10.3312   -5.1946    0.0000 C.3     1  UNL1        0.1341
     64 C          11.1972   -5.6946    0.0000 C.3     1  UNL1        0.1140
     65 C          10.3312   -7.1946    0.0000 C.3     1  UNL1        0.0873
     66 C          11.1972   -6.6946    0.0000 C.3     1  UNL1        0.1095
     67 C          10.3312   -8.1946    0.0000 C.3     1  UNL1       -0.0361
     68 H           7.4398    1.6902    0.0000 H       1  UNL1        0.0315
     69 H           8.3314    0.1306    0.0000 H       1  UNL1        0.0313
     70 H           9.2921    1.9033    0.0000 H       1  UNL1        0.0271
     71 H           8.8824    2.5884    0.0000 H       1  UNL1        0.0271
     72 H           8.9079    0.3795    0.0000 H       1  UNL1        0.0268
     73 H           9.3017    1.0739    0.0000 H       1  UNL1        0.0268
     74 H           6.3466    4.7214    0.0000 H       1  UNL1        0.0352
     75 H           8.8791    3.4315    0.0000 H       1  UNL1        0.0274
     76 H           9.2836    4.1197    0.0000 H       1  UNL1        0.0274
     77 H           5.4251    2.6042    0.0000 H       1  UNL1        0.0310
     78 H           5.8263    1.9155    0.0000 H       1  UNL1        0.0310
     79 H           5.7398    1.0225    0.0000 H       1  UNL1        0.0271
     80 H           5.3300    0.3374    0.0000 H       1  UNL1        0.0271
     81 H           9.2868    4.9491    0.0000 H       1  UNL1        0.0272
     82 H           8.8876    5.6405    0.0000 H       1  UNL1        0.0272
     83 H           8.8623    2.0729    0.0000 H       1  UNL1        0.0235
     84 H           9.3624    2.7931    0.0000 H       1  UNL1        0.0235
     85 H           8.6422    3.2932    0.0000 H       1  UNL1        0.0235
     86 H           7.4046   -1.5036    0.0000 H       1  UNL1        0.0603
     87 H           5.4941    3.8069    0.0000 H       1  UNL1        0.0572
     88 H           6.3400    1.9998    0.0000 H       1  UNL1        0.0235
     89 H           5.4922    1.7761    0.0000 H       1  UNL1        0.0235
     90 H           5.7158    0.9283    0.0000 H       1  UNL1        0.0235
     91 H           5.3199   -0.5353    0.0000 H       1  UNL1        0.0290
     92 H           5.7137   -1.2297    0.0000 H       1  UNL1        0.0290
     93 H           8.6444    2.7248    0.0000 H       1  UNL1        0.0238
     94 H           9.3607    3.2304    0.0000 H       1  UNL1        0.0238
     95 H           8.8550    3.9468    0.0000 H       1  UNL1        0.0238
     96 H           5.3095    5.6550    0.0000 H       1  UNL1        0.0277
     97 H           5.7246    4.9730    0.0000 H       1  UNL1        0.0277
     98 H           8.3128    6.3489    0.0000 H       1  UNL1        0.0625
     99 H           7.3698    7.5119    0.0000 H       1  UNL1        0.0624
    100 H           9.3855   -0.4242    0.0000 H       1  UNL1        0.0563
    101 H           8.6922   -0.0310    0.0000 H       1  UNL1        0.0563
    102 H           7.7767   -1.8248    0.0000 H       1  UNL1        0.0237
    103 H           8.6254   -2.0452    0.0000 H       1  UNL1        0.0237
    104 H           8.8458   -1.1965    0.0000 H       1  UNL1        0.0237
    105 H           8.9486    5.5516    0.0000 H       1  UNL1        0.0236
    106 H           9.1657    6.4011    0.0000 H       1  UNL1        0.0236
    107 H           8.3162    6.6182    0.0000 H       1  UNL1        0.0236
    108 H           5.9202    7.8219    0.0000 H       1  UNL1        0.0236
    109 H           5.0699    8.0358    0.0000 H       1  UNL1        0.0236
    110 H           4.8560    7.1854    0.0000 H       1  UNL1        0.0236
    111 H           4.8920    7.2500    0.0000 H       1  UNL1        0.0236
    112 H           4.2816    6.6205    0.0000 H       1  UNL1        0.0236
    113 H           4.9111    6.0101    0.0000 H       1  UNL1        0.0236
    114 H           8.6424    7.7799    0.0000 H       1  UNL1        0.2099
    115 H           6.2877    8.5046    0.0000 H       1  UNL1        0.2099
    116 H           6.0010   -2.0746    0.0000 H       1  UNL1        0.0938
    117 H           9.9312   -1.4981    0.0000 H       1  UNL1        0.2094
    118 H           6.0010   -4.3146    0.0000 H       1  UNL1        0.0675
    119 H           4.5981   -4.5046    0.0000 H       1  UNL1        0.0648
    120 H           4.2690   -2.0746    0.0000 H       1  UNL1        0.0741
    121 H           3.7320   -3.3846    0.0000 H       1  UNL1        0.0652
    122 H           7.4040   -4.8846    0.0000 H       1  UNL1        0.0938
    123 H           4.5981   -5.5046    0.0000 H       1  UNL1        0.2100
    124 H           3.4030   -4.8146    0.0000 H       1  UNL1        0.2100
    125 H           8.2700   -6.0046    0.0000 H       1  UNL1        0.0675
    126 H           7.7331   -7.3146    0.0000 H       1  UNL1        0.0648
    127 H           5.4641   -6.3846    0.0000 H       1  UNL1        0.0647
    128 H           2.0000   -2.3846    0.0000 H       1  UNL1        0.2951
    129 H           6.3301   -7.5046    0.0000 H       1  UNL1        0.0647
    130 H           4.9230   -6.6120    0.0000 H       1  UNL1        0.0584
    131 H           4.5244   -7.3023    0.0000 H       1  UNL1        0.0584
    132 H           9.4651   -5.0746    0.0000 H       1  UNL1        0.0938
    133 H           8.5991   -7.8146    0.0000 H       1  UNL1        0.2100
    134 H           7.4040   -8.5046    0.0000 H       1  UNL1        0.2100
    135 H          10.8681   -4.8846    0.0000 H       1  UNL1        0.0671
    136 H          11.7341   -6.0046    0.0000 H       1  UNL1        0.0648
    137 H           4.5981   -8.5046    0.0000 H       1  UNL1        0.2095
    138 H           9.7942   -7.5046    0.0000 H       1  UNL1        0.0621
    139 H          11.1972   -7.3146    0.0000 H       1  UNL1        0.0646
    140 H          10.8681   -3.8846    0.0000 H       1  UNL1        0.2101
    141 H           9.7112   -8.1946    0.0000 H       1  UNL1        0.0255
    142 H          10.3312   -8.8146    0.0000 H       1  UNL1        0.0255
    143 H          10.9512   -8.1946    0.0000 H       1  UNL1        0.0255
    144 H          12.6002   -5.5046    0.0000 H       1  UNL1        0.2100
    145 H          12.0632   -7.8146    0.0000 H       1  UNL1        0.2100
@<TRIPOS>BOND
     1     1    36    1
     2     1    50    1
     3     2    42    1
     4     2   114    1
     5     3    44    1
     6     3   115    1
     7     4    45    1
     8     4   117    1
     9     5    50    1
    10     5    53    1
    11     6    51    1
    12     6    55    1
    13     7    52    1
    14     7   123    1
    15     8    54    1
    16     8   124    1
    17     9    55    1
    18     9    59    1
    19    10    56    1
    20    10   128    1
    21    11    56    2
    22    12    57    1
    23    12    62    1
    24    13    58    1
    25    13   133    1
    26    14    60    1
    27    14   134    1
    28    15    62    1
    29    15    65    1
    30    16    61    1
    31    16   137    1
    32    17    63    1
    33    17   140    1
    34    18    64    1
    35    18   144    1
    36    19    66    1
    37    19   145    1
    38    20    21    1
    39    20    23    1
    40    20    25    1
    41    20    35    1
    42    21    22    1
    43    21    32    1
    44    21    68    1
    45    22    24    1
    46    22    33    1
    47    22    38    1
    48    23    26    1
    49    23    31    1
    50    23    40    1
    51    24    27    1
    52    24    28    1
    53    24    69    1
    54    25    28    1
    55    25    70    1
    56    25    71    1
    57    26    29    1
    58    26    37    2
    59    27    36    1
    60    27    45    1
    61    27    46    1
    62    28    72    1
    63    28    73    1
    64    29    30    1
    65    29    41    1
    66    29    74    1
    67    30    34    1
    68    30    42    1
    69    30    47    1
    70    31    34    1
    71    31    75    1
    72    31    76    1
    73    32    37    1
    74    32    77    1
    75    32    78    1
    76    33    39    1
    77    33    79    1
    78    33    80    1
    79    34    81    1
    80    34    82    1
    81    35    83    1
    82    35    84    1
    83    35    85    1
    84    36    39    1
    85    36    86    1
    86    37    87    1
    87    38    88    1
    88    38    89    1
    89    38    90    1
    90    39    91    1
    91    39    92    1
    92    40    93    1
    93    40    94    1
    94    40    95    1
    95    41    43    1
    96    41    96    1
    97    41    97    1
    98    42    44    1
    99    42    98    1
   100    43    44    1
   101    43    48    1
   102    43    49    1
   103    44    99    1
   104    45   100    1
   105    45   101    1
   106    46   102    1
   107    46   103    1
   108    46   104    1
   109    47   105    1
   110    47   106    1
   111    47   107    1
   112    48   108    1
   113    48   109    1
   114    48   110    1
   115    49   111    1
   116    49   112    1
   117    49   113    1
   118    50    51    1
   119    50   116    1
   120    51    52    1
   121    51   118    1
   122    52    54    1
   123    52   119    1
   124    53    54    1
   125    53    56    1
   126    53   120    1
   127    54   121    1
   128    55    57    1
   129    55   122    1
   130    57    58    1
   131    57   125    1
   132    58    60    1
   133    58   126    1
   134    59    60    1
   135    59    61    1
   136    59   127    1
   137    60   129    1
   138    61   130    1
   139    61   131    1
   140    62    63    1
   141    62   132    1
   142    63    64    1
   143    63   135    1
   144    64    66    1
   145    64   136    1
   146    65    66    1
   147    65    67    1
   148    65   138    1
   149    66   139    1
   150    67   141    1
   151    67   142    1
   152    67   143    1
