@<TRIPOS>MOLECULE
IMPHY010098
 66 70 0 0 0
SMALL
GASTEIGER

@<TRIPOS>ATOM
      1 O           5.5022    0.4223    0.0000 O.3     1  UNL1       -0.4826
      2 O           7.2461    3.4985    0.0000 O.3     1  UNL1       -0.4807
      3 O           8.9942    0.4570    0.0000 O.3     1  UNL1       -0.5057
      4 O           5.5138    3.4916    0.0000 O.2     1  UNL1       -0.2917
      5 O           5.2926   -0.8903    0.0000 O.3     1  UNL1       -0.5060
      6 O           8.5478   -2.0750    0.0000 O.3     1  UNL1       -0.5055
      7 O           5.8940   -4.3018    0.0000 O.3     1  UNL1       -0.5056
      8 O           8.8486   -3.7808    0.0000 O.2     1  UNL1       -0.2921
      9 C           6.3961    1.9570    0.0000 C.ar    1  UNL1        0.1018
     10 C           6.3961    0.9570    0.0000 C.ar    1  UNL1        0.1424
     11 C           7.2622    2.4570    0.0000 C.ar    1  UNL1        0.1463
     12 C           7.2622    0.4570    0.0000 C.ar    1  UNL1        0.0417
     13 C           4.5961    0.9362    0.0000 C.3     1  UNL1        0.1322
     14 C           8.1441    4.0262    0.0000 C.3     1  UNL1        0.1235
     15 C           8.1282    1.9570    0.0000 C.ar    1  UNL1        0.0591
     16 C           4.5961    1.9778    0.0000 C.3     1  UNL1        0.0520
     17 C           5.5022    2.4916    0.0000 C.2     1  UNL1        0.1741
     18 C           8.1282    0.9570    0.0000 C.ar    1  UNL1        0.1345
     19 C           7.2622   -0.5430    0.0000 C.3     1  UNL1        0.0115
     20 C           9.0462    3.5054    0.0000 C.2     1  UNL1       -0.0408
     21 C           9.0382    2.4638    0.0000 C.2     1  UNL1       -0.0478
     22 C           3.7320    0.4328    0.0000 C.ar    1  UNL1       -0.0069
     23 C           6.9201   -1.4827    0.0000 C.ar    1  UNL1        0.0411
     24 C           8.6408    4.8942    0.0000 C.3     1  UNL1       -0.0215
     25 C           7.6408    4.8903    0.0000 C.3     1  UNL1       -0.0215
     26 C           5.9353   -1.6563    0.0000 C.ar    1  UNL1        0.1302
     27 C           7.5630   -2.2487    0.0000 C.ar    1  UNL1        0.1378
     28 C           2.8641    0.9295    0.0000 C.ar    1  UNL1       -0.0551
     29 C           3.7359   -0.5672    0.0000 C.ar    1  UNL1       -0.0551
     30 C           5.5932   -2.5960    0.0000 C.ar    1  UNL1        0.0335
     31 C           7.2209   -3.1884    0.0000 C.ar    1  UNL1        0.1005
     32 C           6.2361   -3.3621    0.0000 C.ar    1  UNL1        0.1372
     33 C           2.0000    0.4262    0.0000 C.ar    1  UNL1       -0.0614
     34 C           2.8718   -1.0705    0.0000 C.ar    1  UNL1       -0.0614
     35 C           4.6084   -2.7696    0.0000 C.3     1  UNL1       -0.0327
     36 C           2.0038   -0.5738    0.0000 C.ar    1  UNL1       -0.0617
     37 C           7.8637   -3.9545    0.0000 C.2     1  UNL1        0.1671
     38 C           7.5217   -4.8942    0.0000 C.3     1  UNL1       -0.0012
     39 H           4.5997    0.3162    0.0000 H       1  UNL1        0.0789
     40 H           4.3871    2.5615    0.0000 H       1  UNL1        0.0385
     41 H           3.9853    1.8717    0.0000 H       1  UNL1        0.0385
     42 H           7.7131   -0.9685    0.0000 H       1  UNL1        0.0366
     43 H           6.6516   -0.4353    0.0000 H       1  UNL1        0.0366
     44 H           9.5844    3.8134    0.0000 H       1  UNL1        0.0611
     45 H           9.5715    2.1476    0.0000 H       1  UNL1        0.0624
     46 H           9.1789    4.5863    0.0000 H       1  UNL1        0.0271
     47 H           8.9487    5.4323    0.0000 H       1  UNL1        0.0271
     48 H           8.1027    5.2021    0.0000 H       1  UNL1        0.0271
     49 H           8.1765    5.2024    0.0000 H       1  UNL1        0.0271
     50 H           7.3287    5.4261    0.0000 H       1  UNL1        0.0271
     51 H           7.1051    4.5783    0.0000 H       1  UNL1        0.0271
     52 H           2.8617    1.5495    0.0000 H       1  UNL1        0.0621
     53 H           4.2740   -0.8751    0.0000 H       1  UNL1        0.0621
     54 H           9.5312    0.7670    0.0000 H       1  UNL1        0.2922
     55 H           1.4619    0.7341    0.0000 H       1  UNL1        0.0618
     56 H           2.8742   -1.6905    0.0000 H       1  UNL1        0.0618
     57 H           4.5008   -2.1590    0.0000 H       1  UNL1        0.0280
     58 H           3.9979   -2.8773    0.0000 H       1  UNL1        0.0280
     59 H           4.7161   -3.3802    0.0000 H       1  UNL1        0.0280
     60 H           1.4681   -0.8859    0.0000 H       1  UNL1        0.0618
     61 H           4.6820   -0.9980    0.0000 H       1  UNL1        0.2922
     62 H           8.7598   -1.4925    0.0000 H       1  UNL1        0.2922
     63 H           5.2834   -4.4094    0.0000 H       1  UNL1        0.2922
     64 H           6.9391   -4.6821    0.0000 H       1  UNL1        0.0309
     65 H           7.3096   -5.4768    0.0000 H       1  UNL1        0.0309
     66 H           8.1043   -5.1062    0.0000 H       1  UNL1        0.0309
@<TRIPOS>BOND
     1     1    10    1
     2     1    13    1
     3     2    11    1
     4     2    14    1
     5     3    18    1
     6     3    54    1
     7     4    17    2
     8     5    26    1
     9     5    61    1
    10     6    27    1
    11     6    62    1
    12     7    32    1
    13     7    63    1
    14     8    37    2
    15     9    10   ar
    16     9    11   ar
    17     9    17    1
    18    10    12   ar
    19    11    15   ar
    20    12    18   ar
    21    12    19    1
    22    13    16    1
    23    13    22    1
    24    13    39    1
    25    14    20    1
    26    14    24    1
    27    14    25    1
    28    15    18   ar
    29    15    21    1
    30    16    17    1
    31    16    40    1
    32    16    41    1
    33    19    23    1
    34    19    42    1
    35    19    43    1
    36    20    21    2
    37    20    44    1
    38    21    45    1
    39    22    28   ar
    40    22    29   ar
    41    23    26   ar
    42    23    27   ar
    43    24    46    1
    44    24    47    1
    45    24    48    1
    46    25    49    1
    47    25    50    1
    48    25    51    1
    49    26    30   ar
    50    27    31   ar
    51    28    33   ar
    52    28    52    1
    53    29    34   ar
    54    29    53    1
    55    30    32   ar
    56    30    35    1
    57    31    32   ar
    58    31    37    1
    59    33    36   ar
    60    33    55    1
    61    34    36   ar
    62    34    56    1
    63    35    57    1
    64    35    58    1
    65    35    59    1
    66    36    60    1
    67    37    38    1
    68    38    64    1
    69    38    65    1
    70    38    66    1
