@<TRIPOS>MOLECULE
IMPHY017125
 37 36 0 0 0
SMALL
GASTEIGER

@<TRIPOS>ATOM
      1 O           3.7320   -0.7500    0.0000 O.2     1  UNL1       -0.2974
      2 C           7.1962    0.2500    0.0000 C.3     1  UNL1       -0.0530
      3 C           8.0622    0.7500    0.0000 C.3     1  UNL1       -0.0531
      4 C           6.3301    0.7500    0.0000 C.3     1  UNL1       -0.0527
      5 C           8.9282    0.2500    0.0000 C.3     1  UNL1       -0.0531
      6 C           5.4641    0.2500    0.0000 C.3     1  UNL1       -0.0464
      7 C           9.7942    0.7500    0.0000 C.3     1  UNL1       -0.0533
      8 C           4.5981    0.7500    0.0000 C.3     1  UNL1        0.0058
      9 C          10.6603    0.2500    0.0000 C.3     1  UNL1       -0.0559
     10 C           3.7320    0.2500    0.0000 C.2     1  UNL1        0.1331
     11 C          11.5263    0.7500    0.0000 C.3     1  UNL1       -0.0653
     12 C           2.8660    0.7500    0.0000 C.3     1  UNL1        0.0030
     13 C           2.0000    0.2500    0.0000 C.3     1  UNL1       -0.0586
     14 H           6.7976   -0.2249    0.0000 H       1  UNL1        0.0265
     15 H           7.5947   -0.2249    0.0000 H       1  UNL1        0.0265
     16 H           8.4607    1.2250    0.0000 H       1  UNL1        0.0265
     17 H           7.6636    1.2250    0.0000 H       1  UNL1        0.0265
     18 H           6.7287    1.2250    0.0000 H       1  UNL1        0.0265
     19 H           5.9316    1.2250    0.0000 H       1  UNL1        0.0265
     20 H           8.5297   -0.2249    0.0000 H       1  UNL1        0.0265
     21 H           9.3267   -0.2249    0.0000 H       1  UNL1        0.0265
     22 H           5.0656   -0.2249    0.0000 H       1  UNL1        0.0269
     23 H           5.8626   -0.2249    0.0000 H       1  UNL1        0.0269
     24 H          10.1928    1.2250    0.0000 H       1  UNL1        0.0265
     25 H           9.3957    1.2250    0.0000 H       1  UNL1        0.0265
     26 H           4.9966    1.2250    0.0000 H       1  UNL1        0.0342
     27 H           4.1996    1.2250    0.0000 H       1  UNL1        0.0342
     28 H          10.2617   -0.2249    0.0000 H       1  UNL1        0.0263
     29 H          11.0588   -0.2249    0.0000 H       1  UNL1        0.0263
     30 H          11.8363    0.2131    0.0000 H       1  UNL1        0.0230
     31 H          12.0632    1.0600    0.0000 H       1  UNL1        0.0230
     32 H          11.2163    1.2869    0.0000 H       1  UNL1        0.0230
     33 H           3.2646    1.2250    0.0000 H       1  UNL1        0.0339
     34 H           2.4675    1.2250    0.0000 H       1  UNL1        0.0339
     35 H           1.6900    0.7869    0.0000 H       1  UNL1        0.0234
     36 H           1.4631   -0.0600    0.0000 H       1  UNL1        0.0234
     37 H           2.3100   -0.2869    0.0000 H       1  UNL1        0.0234
@<TRIPOS>BOND
     1     1    10    2
     2     2     3    1
     3     2     4    1
     4     2    14    1
     5     2    15    1
     6     3     5    1
     7     3    16    1
     8     3    17    1
     9     4     6    1
    10     4    18    1
    11     4    19    1
    12     5     7    1
    13     5    20    1
    14     5    21    1
    15     6     8    1
    16     6    22    1
    17     6    23    1
    18     7     9    1
    19     7    24    1
    20     7    25    1
    21     8    10    1
    22     8    26    1
    23     8    27    1
    24     9    11    1
    25     9    28    1
    26     9    29    1
    27    10    12    1
    28    11    30    1
    29    11    31    1
    30    11    32    1
    31    12    13    1
    32    12    33    1
    33    12    34    1
    34    13    35    1
    35    13    36    1
    36    13    37    1
