@<TRIPOS>MOLECULE
IMPHY010645
 26 30 0 0 0
SMALL
GASTEIGER

@<TRIPOS>ATOM
      1 O           1.8523   -0.6777    0.0000 O.3     1  UNL1       -0.3376
      2 C           1.8523   -1.9276    0.0000 C.3     1  UNL1        0.2198
      3 N           4.6685   -1.9276    0.0000 N.3     1  UNL1       -0.2497
      4 C           2.8914   -1.2198    0.0000 C.3     1  UNL1        0.0591
      5 C           4.0209   -0.6777    0.0000 C.3     1  UNL1        0.0222
      6 C           2.9366   -0.0452    0.0000 C.3     1  UNL1        0.1411
      7 C           4.6534   -3.4185    0.0000 C.3     1  UNL1        0.0716
      8 C           5.4214   -2.4547    0.0000 C.3     1  UNL1        0.0167
      9 C           5.1353   -1.2198    0.0000 C.3     1  UNL1        0.0038
     10 C           2.6053   -2.4547    0.0000 C.3     1  UNL1        0.0299
     11 C           3.4035   -3.4185    0.0000 C.3     1  UNL1        0.1039
     12 C           4.0962   -4.3974    0.0000 C.2     1  UNL1        0.2336
     13 N           3.3583   -5.4214    0.0000 N.am    1  UNL1       -0.2569
     14 C           2.1686   -5.0449    0.0000 C.ar    1  UNL1        0.0504
     15 C           1.0542   -5.6172    0.0000 C.ar    1  UNL1        0.0146
     16 C           0.0000   -4.9546    0.0000 C.ar    1  UNL1        0.0013
     17 C           0.0000   -3.7046    0.0000 C.ar    1  UNL1       -0.0002
     18 C           1.1295   -3.1173    0.0000 C.ar    1  UNL1       -0.0026
     19 C           2.1686   -3.7950    0.0000 C.ar    1  UNL1        0.0004
     20 C           6.2196   -0.6024    0.0000 C.3     1  UNL1        0.0328
     21 C           7.3039   -1.2198    0.0000 C.3     1  UNL1        0.1521
     22 O           8.3882   -0.6024    0.0000 O.3     1  UNL1       -0.2231
     23 O           5.3461   -4.3974    0.0000 O.2     1  UNL1       -0.2742
     24 C           3.7799   -6.6111    0.0000 C.3     1  UNL1        0.1200
     25 C           7.3039   -2.4698    0.0000 C.3     1  UNL1        0.0355
     26 H           4.9395    0.0000    0.0000 H       1  UNL1        0.0355
@<TRIPOS>BOND
     1     1     2    1
     2     1     6    1
     3     2     3    1
     4     4     3    1
     5     4    10    1
     6     4     5    1
     7     5     6    1
     8     5     9    1
     9     5    26    1
    10     7     3    1
    11     7    11    1
    12     7     8    1
    13     8     9    1
    14     9    20    1
    15    11    10    1
    16    11    19    1
    17    11    12    1
    18    12    13   am
    19    12    23    2
    20    13    14    1
    21    13    24    1
    22    14    19   ar
    23    14    15   ar
    24    15    16   ar
    25    16    17   ar
    26    17    18   ar
    27    18    19   ar
    28    21    20    1
    29    21    25    1
    30    21    22    1
