@<TRIPOS>MOLECULE
IMPHY017818
 32 33 0 0 0
SMALL
GASTEIGER

@<TRIPOS>ATOM
      1 F           2.0000   -1.5000    0.0000 F       1  UNL1       -0.2019
      2 F           5.4641   -1.5000    0.0000 F       1  UNL1       -0.2019
      3 F           5.4641   -3.5000    0.0000 F       1  UNL1       -0.1993
      4 F           2.0000   -3.5000    0.0000 F       1  UNL1       -0.1993
      5 F           3.7320   -4.5000    0.0000 F       1  UNL1       -0.1993
      6 O           4.5981    0.0000    0.0000 O.2     1  UNL1       -0.3888
      7 N           4.5981    1.0000    0.0000 N.2     1  UNL1       -0.0922
      8 C           3.7320   -1.5000    0.0000 C.ar    1  UNL1        0.0684
      9 C           3.7320   -0.5000    0.0000 C.3     1  UNL1        0.1484
     10 C           2.8660   -2.0000    0.0000 C.ar    1  UNL1        0.1707
     11 C           4.5981   -2.0000    0.0000 C.ar    1  UNL1        0.1707
     12 C           6.3301    3.0000    0.0000 C.ar    1  UNL1       -0.0418
     13 C           5.4641    2.5000    0.0000 C.ar    1  UNL1       -0.0009
     14 C           4.5981   -3.0000    0.0000 C.ar    1  UNL1        0.1968
     15 C           2.8660   -3.0000    0.0000 C.ar    1  UNL1        0.1968
     16 C           3.7320   -3.5000    0.0000 C.ar    1  UNL1        0.1991
     17 C           6.3301    4.0000    0.0000 C.ar    1  UNL1       -0.0582
     18 C           4.5981    3.0000    0.0000 C.ar    1  UNL1       -0.0528
     19 C           7.1962    2.5000    0.0000 C.3     1  UNL1       -0.0391
     20 C           5.4641    1.5000    0.0000 C.2     1  UNL1        0.0739
     21 C           5.4641    4.5000    0.0000 C.ar    1  UNL1       -0.0615
     22 C           4.5981    4.0000    0.0000 C.ar    1  UNL1       -0.0611
     23 H           3.5200    0.0826    0.0000 H       1  UNL1        0.0777
     24 H           3.1215   -0.6077    0.0000 H       1  UNL1        0.0777
     25 H           6.8671    4.3100    0.0000 H       1  UNL1        0.0620
     26 H           4.0611    2.6900    0.0000 H       1  UNL1        0.0624
     27 H           6.8862    1.9631    0.0000 H       1  UNL1        0.0278
     28 H           7.7331    2.1900    0.0000 H       1  UNL1        0.0278
     29 H           7.5062    3.0369    0.0000 H       1  UNL1        0.0278
     30 H           6.0010    1.1900    0.0000 H       1  UNL1        0.0869
     31 H           5.4641    5.1200    0.0000 H       1  UNL1        0.0618
     32 H           4.0611    4.3100    0.0000 H       1  UNL1        0.0618
@<TRIPOS>BOND
     1     1    10    1
     2     2    11    1
     3     3    14    1
     4     4    15    1
     5     5    16    1
     6     6     7    1
     7     6     9    1
     8     7    20    2
     9     8     9    1
    10     8    10   ar
    11     8    11   ar
    12     9    23    1
    13     9    24    1
    14    10    15   ar
    15    11    14   ar
    16    12    13   ar
    17    12    17   ar
    18    12    19    1
    19    13    18   ar
    20    13    20    1
    21    14    16   ar
    22    15    16   ar
    23    17    21   ar
    24    17    25    1
    25    18    22   ar
    26    18    26    1
    27    19    27    1
    28    19    28    1
    29    19    29    1
    30    20    30    1
    31    21    22   ar
    32    21    31    1
    33    22    32    1
