@<TRIPOS>MOLECULE
IMPHY012216
 21 21 0 0 0
SMALL
GASTEIGER

@<TRIPOS>ATOM
      1 O           3.6750    1.8644    0.0000 O.3     1  UNL1       -0.4806
      2 O           4.5411    0.3644    0.0000 O.2     1  UNL1       -0.2510
      3 C           2.8090   -0.6356    0.0000 C.3     1  UNL1       -0.0310
      4 C           2.0000   -1.2234    0.0000 C.3     1  UNL1       -0.0497
      5 C           3.6180   -1.2234    0.0000 C.3     1  UNL1       -0.0497
      6 C           2.3090   -2.1744    0.0000 C.3     1  UNL1       -0.0528
      7 C           3.3090   -2.1744    0.0000 C.3     1  UNL1       -0.0528
      8 C           2.8090    0.3644    0.0000 C.3     1  UNL1        0.0476
      9 C           3.6750    0.8644    0.0000 C.2     1  UNL1        0.3050
     10 H           3.3614   -0.3541    0.0000 H       1  UNL1        0.0306
     11 H           1.6900   -0.6864    0.0000 H       1  UNL1        0.0268
     12 H           1.4336   -1.4755    0.0000 H       1  UNL1        0.0268
     13 H           4.1844   -1.4755    0.0000 H       1  UNL1        0.0268
     14 H           3.9280   -0.6864    0.0000 H       1  UNL1        0.0268
     15 H           1.7026   -2.3033    0.0000 H       1  UNL1        0.0265
     16 H           2.3738   -2.7910    0.0000 H       1  UNL1        0.0265
     17 H           3.2442   -2.7910    0.0000 H       1  UNL1        0.0265
     18 H           3.9155   -2.3033    0.0000 H       1  UNL1        0.0265
     19 H           2.5970    0.9470    0.0000 H       1  UNL1        0.0380
     20 H           2.1984    0.2568    0.0000 H       1  UNL1        0.0380
     21 H           4.2120    2.1744    0.0000 H       1  UNL1        0.2951
@<TRIPOS>BOND
     1     1     9    1
     2     1    21    1
     3     2     9    2
     4     3     4    1
     5     3     5    1
     6     3     8    1
     7     3    10    1
     8     4     6    1
     9     4    11    1
    10     4    12    1
    11     5     7    1
    12     5    13    1
    13     5    14    1
    14     6     7    1
    15     6    15    1
    16     6    16    1
    17     7    17    1
    18     7    18    1
    19     8     9    1
    20     8    19    1
    21     8    20    1
