@<TRIPOS>MOLECULE
IMPHY009578
 91 90 0 0 0
SMALL
GASTEIGER

@<TRIPOS>ATOM
      1 O          20.1865   -0.5950    0.0000 O.3     1  UNL1       -0.3917
      2 O          21.9186   -0.5950    0.0000 O.3     1  UNL1       -0.3917
      3 C          20.1865    0.4050    0.0000 C.3     1  UNL1        0.0576
      4 C          19.3205    0.9050    0.0000 C.3     1  UNL1       -0.0268
      5 C          18.4545    0.4050    0.0000 C.3     1  UNL1       -0.0507
      6 C          17.5885    0.9050    0.0000 C.3     1  UNL1       -0.0530
      7 C          16.7224    0.4050    0.0000 C.3     1  UNL1       -0.0531
      8 C          15.8564    0.9050    0.0000 C.3     1  UNL1       -0.0531
      9 C          21.0526    0.9050    0.0000 C.3     1  UNL1       -0.0007
     10 C          14.9904    0.4050    0.0000 C.3     1  UNL1       -0.0531
     11 C          14.1244    0.9050    0.0000 C.3     1  UNL1       -0.0531
     12 C          13.2583    0.4050    0.0000 C.3     1  UNL1       -0.0531
     13 C          12.3923    0.9050    0.0000 C.3     1  UNL1       -0.0531
     14 C          21.9186    0.4050    0.0000 C.3     1  UNL1        0.0576
     15 C          11.5263    0.4050    0.0000 C.3     1  UNL1       -0.0531
     16 C          10.6603    0.9050    0.0000 C.3     1  UNL1       -0.0531
     17 C           9.7942    0.4050    0.0000 C.3     1  UNL1       -0.0531
     18 C           8.9282    0.9050    0.0000 C.3     1  UNL1       -0.0531
     19 C          22.7846    0.9050    0.0000 C.3     1  UNL1       -0.0268
     20 C           8.0622    0.4050    0.0000 C.3     1  UNL1       -0.0531
     21 C           7.1962    0.9050    0.0000 C.3     1  UNL1       -0.0531
     22 C           6.3301    0.4050    0.0000 C.3     1  UNL1       -0.0531
     23 C          23.6506    0.4050    0.0000 C.3     1  UNL1       -0.0507
     24 C           5.4641    0.9050    0.0000 C.3     1  UNL1       -0.0531
     25 C          24.5167    0.9050    0.0000 C.3     1  UNL1       -0.0532
     26 C           4.5981    0.4050    0.0000 C.3     1  UNL1       -0.0531
     27 C           3.7320    0.9050    0.0000 C.3     1  UNL1       -0.0533
     28 C          25.3827    0.4050    0.0000 C.3     1  UNL1       -0.0559
     29 C           2.8660    0.4050    0.0000 C.3     1  UNL1       -0.0559
     30 C          26.2487    0.9050    0.0000 C.3     1  UNL1       -0.0653
     31 C           2.0000    0.9050    0.0000 C.3     1  UNL1       -0.0653
     32 H          19.4504   -0.0200    0.0000 H       1  UNL1        0.0594
     33 H          19.7190    1.3800    0.0000 H       1  UNL1        0.0290
     34 H          18.9220    1.3800    0.0000 H       1  UNL1        0.0290
     35 H          18.0560   -0.0699    0.0000 H       1  UNL1        0.0266
     36 H          18.8530   -0.0699    0.0000 H       1  UNL1        0.0266
     37 H          17.9870    1.3800    0.0000 H       1  UNL1        0.0265
     38 H          17.1899    1.3800    0.0000 H       1  UNL1        0.0265
     39 H          16.3239   -0.0699    0.0000 H       1  UNL1        0.0265
     40 H          17.1210   -0.0699    0.0000 H       1  UNL1        0.0265
     41 H          16.2549    1.3800    0.0000 H       1  UNL1        0.0265
     42 H          15.4579    1.3800    0.0000 H       1  UNL1        0.0265
     43 H          21.4511    1.3800    0.0000 H       1  UNL1        0.0315
     44 H          20.6540    1.3800    0.0000 H       1  UNL1        0.0315
     45 H          14.5919   -0.0699    0.0000 H       1  UNL1        0.0265
     46 H          15.3889   -0.0699    0.0000 H       1  UNL1        0.0265
     47 H          14.5229    1.3800    0.0000 H       1  UNL1        0.0265
     48 H          13.7258    1.3800    0.0000 H       1  UNL1        0.0265
     49 H          12.8598   -0.0699    0.0000 H       1  UNL1        0.0265
     50 H          13.6569   -0.0699    0.0000 H       1  UNL1        0.0265
     51 H          12.7908    1.3800    0.0000 H       1  UNL1        0.0265
     52 H          11.9938    1.3800    0.0000 H       1  UNL1        0.0265
     53 H          22.6547   -0.0200    0.0000 H       1  UNL1        0.0594
     54 H          11.1278   -0.0699    0.0000 H       1  UNL1        0.0265
     55 H          11.9248   -0.0699    0.0000 H       1  UNL1        0.0265
     56 H          11.0588    1.3800    0.0000 H       1  UNL1        0.0265
     57 H          10.2617    1.3800    0.0000 H       1  UNL1        0.0265
     58 H           9.3957   -0.0699    0.0000 H       1  UNL1        0.0265
     59 H          10.1928   -0.0699    0.0000 H       1  UNL1        0.0265
     60 H           9.3267    1.3800    0.0000 H       1  UNL1        0.0265
     61 H           8.5297    1.3800    0.0000 H       1  UNL1        0.0265
     62 H          23.1831    1.3800    0.0000 H       1  UNL1        0.0290
     63 H          22.3861    1.3800    0.0000 H       1  UNL1        0.0290
     64 H           7.6636   -0.0699    0.0000 H       1  UNL1        0.0265
     65 H           8.4607   -0.0699    0.0000 H       1  UNL1        0.0265
     66 H           7.5947    1.3800    0.0000 H       1  UNL1        0.0265
     67 H           6.7976    1.3800    0.0000 H       1  UNL1        0.0265
     68 H           5.9316   -0.0699    0.0000 H       1  UNL1        0.0265
     69 H           6.7287   -0.0699    0.0000 H       1  UNL1        0.0265
     70 H          23.2521   -0.0699    0.0000 H       1  UNL1        0.0266
     71 H          24.0492   -0.0699    0.0000 H       1  UNL1        0.0266
     72 H           5.8626    1.3800    0.0000 H       1  UNL1        0.0265
     73 H           5.0656    1.3800    0.0000 H       1  UNL1        0.0265
     74 H          24.9152    1.3800    0.0000 H       1  UNL1        0.0265
     75 H          24.1181    1.3800    0.0000 H       1  UNL1        0.0265
     76 H           4.1996   -0.0699    0.0000 H       1  UNL1        0.0265
     77 H           4.9966   -0.0699    0.0000 H       1  UNL1        0.0265
     78 H          19.6496   -0.9050    0.0000 H       1  UNL1        0.2098
     79 H           4.1306    1.3800    0.0000 H       1  UNL1        0.0265
     80 H           3.3335    1.3800    0.0000 H       1  UNL1        0.0265
     81 H          22.4555   -0.9050    0.0000 H       1  UNL1        0.2098
     82 H          24.9842   -0.0699    0.0000 H       1  UNL1        0.0263
     83 H          25.7812   -0.0699    0.0000 H       1  UNL1        0.0263
     84 H           2.4675   -0.0699    0.0000 H       1  UNL1        0.0263
     85 H           3.2646   -0.0699    0.0000 H       1  UNL1        0.0263
     86 H          26.5587    0.3681    0.0000 H       1  UNL1        0.0230
     87 H          26.7856    1.2150    0.0000 H       1  UNL1        0.0230
     88 H          25.9387    1.4419    0.0000 H       1  UNL1        0.0230
     89 H           2.3100    1.4419    0.0000 H       1  UNL1        0.0230
     90 H           1.4631    1.2150    0.0000 H       1  UNL1        0.0230
     91 H           1.6900    0.3681    0.0000 H       1  UNL1        0.0230
@<TRIPOS>BOND
     1     1     3    1
     2     1    78    1
     3     2    14    1
     4     2    81    1
     5     3     4    1
     6     3     9    1
     7     3    32    1
     8     4     5    1
     9     4    33    1
    10     4    34    1
    11     5     6    1
    12     5    35    1
    13     5    36    1
    14     6     7    1
    15     6    37    1
    16     6    38    1
    17     7     8    1
    18     7    39    1
    19     7    40    1
    20     8    10    1
    21     8    41    1
    22     8    42    1
    23     9    14    1
    24     9    43    1
    25     9    44    1
    26    10    11    1
    27    10    45    1
    28    10    46    1
    29    11    12    1
    30    11    47    1
    31    11    48    1
    32    12    13    1
    33    12    49    1
    34    12    50    1
    35    13    15    1
    36    13    51    1
    37    13    52    1
    38    14    19    1
    39    14    53    1
    40    15    16    1
    41    15    54    1
    42    15    55    1
    43    16    17    1
    44    16    56    1
    45    16    57    1
    46    17    18    1
    47    17    58    1
    48    17    59    1
    49    18    20    1
    50    18    60    1
    51    18    61    1
    52    19    23    1
    53    19    62    1
    54    19    63    1
    55    20    21    1
    56    20    64    1
    57    20    65    1
    58    21    22    1
    59    21    66    1
    60    21    67    1
    61    22    24    1
    62    22    68    1
    63    22    69    1
    64    23    25    1
    65    23    70    1
    66    23    71    1
    67    24    26    1
    68    24    72    1
    69    24    73    1
    70    25    28    1
    71    25    74    1
    72    25    75    1
    73    26    27    1
    74    26    76    1
    75    26    77    1
    76    27    29    1
    77    27    79    1
    78    27    80    1
    79    28    30    1
    80    28    82    1
    81    28    83    1
    82    29    31    1
    83    29    84    1
    84    29    85    1
    85    30    86    1
    86    30    87    1
    87    30    88    1
    88    31    89    1
    89    31    90    1
    90    31    91    1
