@<TRIPOS>MOLECULE
IMPHY008114
 77 79 0 0 0
SMALL
GASTEIGER

@<TRIPOS>ATOM
      1 O           6.3282   -0.3086    0.0000 O.3     1  UNL1       -0.4538
      2 O           4.0035    1.9075    0.0000 O.3     1  UNL1       -0.4569
      3 O           6.2315   -0.8797    0.0000 O.3     1  UNL1       -0.4569
      4 O           6.3282    1.4234    0.0000 O.2     1  UNL1       -0.2511
      5 O           5.2927    3.0642    0.0000 O.2     1  UNL1       -0.2450
      6 O           4.8288   -2.0100    0.0000 O.2     1  UNL1       -0.2920
      7 O           6.9744   -2.4444    0.0000 O.2     1  UNL1       -0.2512
      8 O           5.5406   -3.4525    0.0000 O.2     1  UNL1       -0.2961
      9 C           5.3282   -0.3086    0.0000 C.3     1  UNL1        0.1604
     10 C           4.4622    0.1914    0.0000 C.3     1  UNL1        0.0586
     11 C           6.0652    0.3585    0.0000 C.3     1  UNL1       -0.0026
     12 C           5.6601    1.2663    0.0000 C.3     1  UNL1       -0.0022
     13 C           4.6714    1.1632    0.0000 C.3     1  UNL1        0.1161
     14 C           5.3282   -1.3086    0.0000 C.3     1  UNL1        0.1491
     15 C           5.3209   -2.3994    0.0000 C.3     1  UNL1        0.0153
     16 C           3.5962   -0.3086    0.0000 C.2     1  UNL1       -0.0674
     17 C           6.1601    2.1323    0.0000 C.3     1  UNL1       -0.0589
     18 C           4.3711   -2.7123    0.0000 C.3     1  UNL1       -0.0554
     19 C           3.3373   -1.2745    0.0000 C.2     1  UNL1       -0.0110
     20 C           6.0280   -3.1065    0.0000 C.2     1  UNL1       -0.0806
     21 C           6.8282    0.5574    0.0000 C.2     1  UNL1        0.3046
     22 C           4.3142    2.8580    0.0000 C.2     1  UNL1        0.3395
     23 C           5.7692   -4.0724    0.0000 C.2     1  UNL1       -0.0749
     24 C           4.8032   -4.3312    0.0000 C.3     1  UNL1        0.0418
     25 C           3.8373   -2.1406    0.0000 C.2     1  UNL1        0.1658
     26 C           7.0547   -1.4476    0.0000 C.2     1  UNL1        0.3043
     27 C           2.3459   -1.4051    0.0000 C.3     1  UNL1       -0.0367
     28 C           3.5785   -3.1065    0.0000 C.3     1  UNL1        0.0694
     29 C           7.8282    0.5574    0.0000 C.3     1  UNL1        0.0333
     30 C           4.5444   -3.3653    0.0000 C.2     1  UNL1        0.1500
     31 C           3.6464    3.6023    0.0000 C.ar    1  UNL1        0.0590
     32 C           5.0621   -5.2972    0.0000 C.3     1  UNL1       -0.0496
     33 C           4.0962   -5.0383    0.0000 C.3     1  UNL1       -0.0496
     34 C           7.9580   -1.0187    0.0000 C.3     1  UNL1        0.0332
     35 C           3.9570    4.5528    0.0000 C.ar    1  UNL1       -0.0478
     36 C           2.6678    3.3961    0.0000 C.ar    1  UNL1       -0.0478
     37 C           3.2892    5.2972    0.0000 C.ar    1  UNL1       -0.0610
     38 C           2.0000    4.1404    0.0000 C.ar    1  UNL1       -0.0610
     39 C           2.3107    5.0909    0.0000 C.ar    1  UNL1       -0.0617
     40 H           3.7752    0.6919    0.0000 H       1  UNL1        0.0420
     41 H           6.4306   -0.1424    0.0000 H       1  UNL1        0.0309
     42 H           6.6017    0.6692    0.0000 H       1  UNL1        0.0309
     43 H           5.3226    1.7864    0.0000 H       1  UNL1        0.0335
     44 H           4.0722    1.0040    0.0000 H       1  UNL1        0.0744
     45 H           5.8511   -1.6417    0.0000 H       1  UNL1        0.0780
     46 H           5.1774   -3.0026    0.0000 H       1  UNL1        0.0377
     47 H           3.1043    0.0688    0.0000 H       1  UNL1        0.0581
     48 H           6.6970    1.8223    0.0000 H       1  UNL1        0.0234
     49 H           6.4701    2.6692    0.0000 H       1  UNL1        0.0234
     50 H           5.6232    2.4423    0.0000 H       1  UNL1        0.0234
     51 H           4.1771   -2.1234    0.0000 H       1  UNL1        0.0237
     52 H           3.7822   -2.9063    0.0000 H       1  UNL1        0.0237
     53 H           4.5651   -3.3012    0.0000 H       1  UNL1        0.0237
     54 H           6.6269   -2.9460    0.0000 H       1  UNL1        0.0573
     55 H           6.2076   -4.5108    0.0000 H       1  UNL1        0.0579
     56 H           2.2649   -0.7904    0.0000 H       1  UNL1        0.0278
     57 H           1.7312   -1.4860    0.0000 H       1  UNL1        0.0278
     58 H           2.4268   -2.0198    0.0000 H       1  UNL1        0.0278
     59 H           2.9796   -2.9460    0.0000 H       1  UNL1        0.0423
     60 H           3.4180   -3.7054    0.0000 H       1  UNL1        0.0423
     61 H           7.8282   -0.0626    0.0000 H       1  UNL1        0.0342
     62 H           8.4482    0.5574    0.0000 H       1  UNL1        0.0342
     63 H           7.8282    1.1774    0.0000 H       1  UNL1        0.0342
     64 H           4.4633   -5.4577    0.0000 H       1  UNL1        0.0242
     65 H           5.2226   -5.8960    0.0000 H       1  UNL1        0.0242
     66 H           5.6610   -5.1366    0.0000 H       1  UNL1        0.0242
     67 H           3.6577   -4.5999    0.0000 H       1  UNL1        0.0242
     68 H           3.6577   -5.4768    0.0000 H       1  UNL1        0.0242
     69 H           4.5346   -5.4768    0.0000 H       1  UNL1        0.0242
     70 H           8.2239   -1.5787    0.0000 H       1  UNL1        0.0342
     71 H           8.5181   -0.7527    0.0000 H       1  UNL1        0.0342
     72 H           7.6921   -0.4586    0.0000 H       1  UNL1        0.0342
     73 H           4.5637    4.6807    0.0000 H       1  UNL1        0.0626
     74 H           2.4752    2.8068    0.0000 H       1  UNL1        0.0626
     75 H           3.4818    5.8865    0.0000 H       1  UNL1        0.0618
     76 H           1.3933    4.0126    0.0000 H       1  UNL1        0.0618
     77 H           1.8966    5.5524    0.0000 H       1  UNL1        0.0618
@<TRIPOS>BOND
     1     9     1    1
     2     1    21    1
     3    13     2    1
     4     2    22    1
     5    14     3    1
     6     3    26    1
     7     4    21    2
     8     5    22    2
     9     6    25    2
    10     7    26    2
    11     8    30    2
    12     9    10    1
    13     9    11    1
    14     9    14    1
    15    10    13    1
    16    10    16    1
    17    10    40    1
    18    11    12    1
    19    11    41    1
    20    11    42    1
    21    12    13    1
    22    12    17    1
    23    12    43    1
    24    13    44    1
    25    14    15    1
    26    14    45    1
    27    15    18    1
    28    15    20    1
    29    15    46    1
    30    16    19    2
    31    16    47    1
    32    17    48    1
    33    17    49    1
    34    17    50    1
    35    18    51    1
    36    18    52    1
    37    18    53    1
    38    19    25    1
    39    19    27    1
    40    20    23    2
    41    20    54    1
    42    21    29    1
    43    22    31    1
    44    23    24    1
    45    23    55    1
    46    24    30    1
    47    24    32    1
    48    24    33    1
    49    25    28    1
    50    26    34    1
    51    27    56    1
    52    27    57    1
    53    27    58    1
    54    28    30    1
    55    28    59    1
    56    28    60    1
    57    29    61    1
    58    29    62    1
    59    29    63    1
    60    31    35   ar
    61    31    36   ar
    62    32    64    1
    63    32    65    1
    64    32    66    1
    65    33    67    1
    66    33    68    1
    67    33    69    1
    68    34    70    1
    69    34    71    1
    70    34    72    1
    71    35    37   ar
    72    35    73    1
    73    36    38   ar
    74    36    74    1
    75    37    39   ar
    76    37    75    1
    77    38    39   ar
    78    38    76    1
    79    39    77    1
