@<TRIPOS>MOLECULE
IMPHY000094
 40 41 0 0 0
SMALL
GASTEIGER

@<TRIPOS>ATOM
      1 O           2.5369    1.2327    0.0000 O.3     1  UNL1       -0.3888
      2 C           6.0010   -0.7673    0.0000 C.3     1  UNL1       -0.0073
      3 C           6.0010    0.2327    0.0000 C.3     1  UNL1       -0.0107
      4 C           4.2690    0.2327    0.0000 C.3     1  UNL1       -0.0121
      5 C           5.1350    0.7327    0.0000 C.3     1  UNL1       -0.0403
      6 C           5.1350   -1.2673    0.0000 C.3     1  UNL1       -0.0433
      7 C           4.2690   -0.7673    0.0000 C.3     1  UNL1       -0.0468
      8 C           3.4030    0.7327    0.0000 C.3     1  UNL1        0.0633
      9 C           6.8950    0.7674    0.0000 C.2     1  UNL1       -0.0687
     10 C           6.0010   -1.7673    0.0000 C.3     1  UNL1       -0.0555
     11 C           6.8950   -1.3020    0.0000 C.2     1  UNL1       -0.0775
     12 C           2.9030   -0.1333    0.0000 C.3     1  UNL1       -0.0361
     13 C           3.9030    1.5987    0.0000 C.3     1  UNL1       -0.0361
     14 C           7.8010    0.2535    0.0000 C.2     1  UNL1       -0.0628
     15 C           7.8010   -0.7881    0.0000 C.2     1  UNL1       -0.0652
     16 C           6.8834    1.7673    0.0000 C.3     1  UNL1       -0.0432
     17 H           5.9945    1.0827    0.0000 H       1  UNL1        0.0354
     18 H           4.2690    1.0827    0.0000 H       1  UNL1        0.0328
     19 H           5.5335    1.2076    0.0000 H       1  UNL1        0.0275
     20 H           4.7365    1.2076    0.0000 H       1  UNL1        0.0275
     21 H           4.7365   -1.7422    0.0000 H       1  UNL1        0.0274
     22 H           5.5335   -1.7422    0.0000 H       1  UNL1        0.0274
     23 H           3.6584   -0.6596    0.0000 H       1  UNL1        0.0269
     24 H           4.0569   -1.3499    0.0000 H       1  UNL1        0.0269
     25 H           5.3810   -1.7673    0.0000 H       1  UNL1        0.0238
     26 H           6.0010   -2.3873    0.0000 H       1  UNL1        0.0238
     27 H           6.6210   -1.7673    0.0000 H       1  UNL1        0.0238
     28 H           6.8878   -1.9219    0.0000 H       1  UNL1        0.0578
     29 H           2.3660    0.1767    0.0000 H       1  UNL1        0.0257
     30 H           2.5930   -0.6703    0.0000 H       1  UNL1        0.0257
     31 H           3.4399   -0.4433    0.0000 H       1  UNL1        0.0257
     32 H           4.4399    1.2887    0.0000 H       1  UNL1        0.0257
     33 H           4.2130    2.1357    0.0000 H       1  UNL1        0.0257
     34 H           3.3660    1.9087    0.0000 H       1  UNL1        0.0257
     35 H           8.3368    0.5656    0.0000 H       1  UNL1        0.0617
     36 H           8.3368   -1.1002    0.0000 H       1  UNL1        0.0615
     37 H           7.5034    1.7745    0.0000 H       1  UNL1        0.0275
     38 H           6.8762    2.3873    0.0000 H       1  UNL1        0.0275
     39 H           6.2635    1.7601    0.0000 H       1  UNL1        0.0275
     40 H           2.0000    0.9227    0.0000 H       1  UNL1        0.2101
@<TRIPOS>BOND
     1     1     8    1
     2     1    40    1
     3     2     3    1
     4     2     6    1
     5     2    10    1
     6     2    11    1
     7     3     5    1
     8     3     9    1
     9     3    17    1
    10     4     5    1
    11     4     7    1
    12     4     8    1
    13     4    18    1
    14     5    19    1
    15     5    20    1
    16     6     7    1
    17     6    21    1
    18     6    22    1
    19     7    23    1
    20     7    24    1
    21     8    12    1
    22     8    13    1
    23     9    14    2
    24     9    16    1
    25    10    25    1
    26    10    26    1
    27    10    27    1
    28    11    15    2
    29    11    28    1
    30    12    29    1
    31    12    30    1
    32    12    31    1
    33    13    32    1
    34    13    33    1
    35    13    34    1
    36    14    15    1
    37    14    35    1
    38    15    36    1
    39    16    37    1
    40    16    38    1
    41    16    39    1
