@<TRIPOS>MOLECULE
IMPHY016448
 24 23 0 0 0
SMALL
GASTEIGER

@<TRIPOS>ATOM
      1 C           4.5981   -0.2500    0.0000 C.3     1  UNL1       -0.0381
      2 C           5.4641    0.2500    0.0000 C.3     1  UNL1       -0.0439
      3 C           3.7320    0.2500    0.0000 C.3     1  UNL1       -0.0322
      4 C           4.5981   -1.2500    0.0000 C.3     1  UNL1       -0.0619
      5 C           6.3301   -0.2500    0.0000 C.3     1  UNL1       -0.0624
      6 C           5.4641    1.2500    0.0000 C.3     1  UNL1       -0.0624
      7 C           2.8660   -0.2500    0.0000 C.2     1  UNL1       -0.0908
      8 C           2.0000    0.2500    0.0000 C.2     1  UNL1       -0.1026
      9 H           5.1350   -0.5600    0.0000 H       1  UNL1        0.0304
     10 H           6.0010    0.5600    0.0000 H       1  UNL1        0.0298
     11 H           4.1306    0.7249    0.0000 H       1  UNL1        0.0310
     12 H           3.3335    0.7249    0.0000 H       1  UNL1        0.0310
     13 H           3.9781   -1.2500    0.0000 H       1  UNL1        0.0233
     14 H           4.5981   -1.8700    0.0000 H       1  UNL1        0.0233
     15 H           5.2181   -1.2500    0.0000 H       1  UNL1        0.0233
     16 H           6.0201   -0.7869    0.0000 H       1  UNL1        0.0232
     17 H           6.8671   -0.5600    0.0000 H       1  UNL1        0.0232
     18 H           6.6401    0.2869    0.0000 H       1  UNL1        0.0232
     19 H           6.0841    1.2500    0.0000 H       1  UNL1        0.0232
     20 H           5.4641    1.8700    0.0000 H       1  UNL1        0.0232
     21 H           4.8441    1.2500    0.0000 H       1  UNL1        0.0232
     22 H           2.8660   -0.8700    0.0000 H       1  UNL1        0.0566
     23 H           2.0000    0.8700    0.0000 H       1  UNL1        0.0532
     24 H           1.4631   -0.0600    0.0000 H       1  UNL1        0.0532
@<TRIPOS>BOND
     1     1     2    1
     2     1     3    1
     3     1     4    1
     4     1     9    1
     5     2     5    1
     6     2     6    1
     7     2    10    1
     8     3     7    1
     9     3    11    1
    10     3    12    1
    11     4    13    1
    12     4    14    1
    13     4    15    1
    14     5    16    1
    15     5    17    1
    16     5    18    1
    17     6    19    1
    18     6    20    1
    19     6    21    1
    20     7     8    2
    21     7    22    1
    22     8    23    1
    23     8    24    1
