@<TRIPOS>MOLECULE
IMPHY009240
 54 57 0 0 0
SMALL
GASTEIGER

@<TRIPOS>ATOM
      1 O           8.6500   -2.3961    0.0000 O.3     1  UNL1       -0.4525
      2 O           7.1011   -3.0376    0.0000 O.3     1  UNL1       -0.4489
      3 O           5.7237   -2.2467    0.0000 O.3     1  UNL1       -0.4907
      4 O           4.5127   -1.7451    0.0000 O.3     1  UNL1       -0.5028
      5 O           2.3791    0.4367    0.0000 O.3     1  UNL1       -0.4913
      6 O           3.1630   -1.4557    0.0000 O.3     1  UNL1       -0.4885
      7 C           7.2714    1.8958    0.0000 C.3     1  UNL1       -0.0370
      8 C           6.3476    2.2785    0.0000 C.3     1  UNL1       -0.0370
      9 C           7.6541    0.9719    0.0000 C.3     1  UNL1       -0.0240
     10 C           5.4237    1.8958    0.0000 C.3     1  UNL1       -0.0240
     11 C           7.2714    0.0481    0.0000 C.ar    1  UNL1       -0.0321
     12 C           5.0410    0.9719    0.0000 C.ar    1  UNL1       -0.0321
     13 C           6.3476   -0.3346    0.0000 C.ar    1  UNL1        0.0347
     14 C           7.9786    2.6029    0.0000 C.3     1  UNL1       -0.0619
     15 C           6.3476    3.2785    0.0000 C.3     1  UNL1       -0.0619
     16 C           5.4237    0.0481    0.0000 C.ar    1  UNL1        0.0345
     17 C           8.1075   -0.5732    0.0000 C.ar    1  UNL1       -0.0121
     18 C           6.1957   -1.3651    0.0000 C.ar    1  UNL1        0.1734
     19 C           4.0105    1.1238    0.0000 C.ar    1  UNL1       -0.0123
     20 C           4.8024   -0.7880    0.0000 C.ar    1  UNL1        0.1704
     21 C           7.9795   -1.6070    0.0000 C.ar    1  UNL1        0.1702
     22 C           7.0172   -2.0056    0.0000 C.ar    1  UNL1        0.2081
     23 C           3.3700    0.3023    0.0000 C.ar    1  UNL1        0.1655
     24 C           3.7687   -0.6600    0.0000 C.ar    1  UNL1        0.2039
     25 C           8.1082   -3.2785    0.0000 C.3     1  UNL1        0.2334
     26 C           6.2513   -3.0963    0.0000 C.3     1  UNL1        0.0790
     27 C           2.0000    1.3620    0.0000 C.3     1  UNL1        0.0790
     28 C           2.1710   -1.3290    0.0000 C.3     1  UNL1        0.0791
     29 H           7.8795    1.7749    0.0000 H       1  UNL1        0.0304
     30 H           6.8631    2.6230    0.0000 H       1  UNL1        0.0304
     31 H           8.1460    0.5945    0.0000 H       1  UNL1        0.0316
     32 H           8.1460    1.3494    0.0000 H       1  UNL1        0.0316
     33 H           5.3428    2.5105    0.0000 H       1  UNL1        0.0316
     34 H           4.8090    1.9767    0.0000 H       1  UNL1        0.0316
     35 H           8.4170    2.1645    0.0000 H       1  UNL1        0.0233
     36 H           8.4170    3.0413    0.0000 H       1  UNL1        0.0233
     37 H           7.5402    3.0413    0.0000 H       1  UNL1        0.0233
     38 H           6.9676    3.2785    0.0000 H       1  UNL1        0.0233
     39 H           6.3476    3.8985    0.0000 H       1  UNL1        0.0233
     40 H           5.7276    3.2785    0.0000 H       1  UNL1        0.0233
     41 H           8.6775   -0.3294    0.0000 H       1  UNL1        0.0658
     42 H           3.7799    1.6993    0.0000 H       1  UNL1        0.0658
     43 H           7.9014   -3.8630    0.0000 H       1  UNL1        0.1166
     44 H           8.6677   -3.5456    0.0000 H       1  UNL1        0.1166
     45 H           3.9090   -1.8863    0.0000 H       1  UNL1        0.2923
     46 H           5.7246   -3.4234    0.0000 H       1  UNL1        0.0660
     47 H           6.5783   -3.6230    0.0000 H       1  UNL1        0.0660
     48 H           6.7780   -2.7692    0.0000 H       1  UNL1        0.0660
     49 H           2.5737    1.5971    0.0000 H       1  UNL1        0.0660
     50 H           1.7650    1.9357    0.0000 H       1  UNL1        0.0660
     51 H           1.4263    1.1270    0.0000 H       1  UNL1        0.0660
     52 H           2.2496   -0.7140    0.0000 H       1  UNL1        0.0660
     53 H           1.5560   -1.2504    0.0000 H       1  UNL1        0.0660
     54 H           2.0925   -1.9440    0.0000 H       1  UNL1        0.0660
@<TRIPOS>BOND
     1     1    21    1
     2     1    25    1
     3     2    22    1
     4     2    25    1
     5     3    18    1
     6     3    26    1
     7     4    20    1
     8     4    45    1
     9     5    23    1
    10     5    27    1
    11     6    24    1
    12     6    28    1
    13     7     8    1
    14     7     9    1
    15     7    14    1
    16     7    29    1
    17     8    10    1
    18     8    15    1
    19     8    30    1
    20     9    11    1
    21     9    31    1
    22     9    32    1
    23    10    12    1
    24    10    33    1
    25    10    34    1
    26    11    13   ar
    27    11    17   ar
    28    12    16   ar
    29    12    19   ar
    30    13    16    1
    31    13    18   ar
    32    14    35    1
    33    14    36    1
    34    14    37    1
    35    15    38    1
    36    15    39    1
    37    15    40    1
    38    16    20   ar
    39    17    21   ar
    40    17    41    1
    41    18    22   ar
    42    19    23   ar
    43    19    42    1
    44    20    24   ar
    45    21    22   ar
    46    23    24   ar
    47    25    43    1
    48    25    44    1
    49    26    46    1
    50    26    47    1
    51    26    48    1
    52    27    49    1
    53    27    50    1
    54    27    51    1
    55    28    52    1
    56    28    53    1
    57    28    54    1
