@<TRIPOS>MOLECULE
IMPHY015141
 54 56 0 0 0
SMALL
GASTEIGER

@<TRIPOS>ATOM
      1 O           6.4421    0.0698    0.0000 O.3     1  UNL1       -0.3624
      2 O           3.7782    1.5944    0.0000 O.2     1  UNL1       -0.2969
      3 C           3.8000   -0.4370    0.0000 C.3     1  UNL1       -0.0166
      4 C           3.8000   -1.4370    0.0000 C.3     1  UNL1       -0.0297
      5 C           4.6660    0.0630    0.0000 C.3     1  UNL1        0.0520
      6 C           2.9061   -1.9717    0.0000 C.3     1  UNL1       -0.0315
      7 C           5.5321   -0.4370    0.0000 C.3     1  UNL1        0.0778
      8 C           4.6660   -1.9370    0.0000 C.3     1  UNL1       -0.0466
      9 C           2.9061    0.0976    0.0000 C.3     1  UNL1       -0.0466
     10 C           5.5321   -1.4370    0.0000 C.3     1  UNL1       -0.0230
     11 C           2.0000   -1.4578    0.0000 C.3     1  UNL1       -0.0476
     12 C           2.0000   -0.4162    0.0000 C.3     1  UNL1       -0.0520
     13 C           3.8000    0.5630    0.0000 C.3     1  UNL1       -0.0586
     14 C           4.6500    1.1045    0.0000 C.2     1  UNL1        0.1427
     15 C           2.4161   -2.8434    0.0000 C.3     1  UNL1       -0.0595
     16 C           3.4160   -2.8319    0.0000 C.3     1  UNL1       -0.0595
     17 C           6.3981   -0.9370    0.0000 C.3     1  UNL1       -0.0351
     18 C           6.4501    1.1114    0.0000 C.3     1  UNL1        0.0919
     19 C           5.5480    1.6322    0.0000 C.3     1  UNL1        0.0387
     20 C           7.4501    1.1076    0.0000 C.3     1  UNL1       -0.0318
     21 C           6.9534    1.9755    0.0000 C.2     1  UNL1       -0.0595
     22 C           6.4568    2.8434    0.0000 C.2     1  UNL1       -0.0999
     23 H           3.8048   -2.0570    0.0000 H       1  UNL1        0.0311
     24 H           5.2006    0.3771    0.0000 H       1  UNL1        0.0411
     25 H           4.2675   -2.4120    0.0000 H       1  UNL1        0.0269
     26 H           5.0646   -2.4120    0.0000 H       1  UNL1        0.0269
     27 H           3.3107    0.5674    0.0000 H       1  UNL1        0.0271
     28 H           2.5124    0.5766    0.0000 H       1  UNL1        0.0271
     29 H           5.7441   -2.0196    0.0000 H       1  UNL1        0.0293
     30 H           6.1426   -1.3294    0.0000 H       1  UNL1        0.0293
     31 H           1.3891   -1.3518    0.0000 H       1  UNL1        0.0271
     32 H           1.7909   -2.0415    0.0000 H       1  UNL1        0.0271
     33 H           1.7909    0.1675    0.0000 H       1  UNL1        0.0266
     34 H           1.3891   -0.5223    0.0000 H       1  UNL1        0.0266
     35 H           4.4200    0.5630    0.0000 H       1  UNL1        0.0235
     36 H           3.8000    1.1830    0.0000 H       1  UNL1        0.0235
     37 H           3.1800    0.5630    0.0000 H       1  UNL1        0.0235
     38 H           1.8756   -2.5397    0.0000 H       1  UNL1        0.0235
     39 H           2.1123   -3.3839    0.0000 H       1  UNL1        0.0235
     40 H           2.9566   -3.1472    0.0000 H       1  UNL1        0.0235
     41 H           2.8827   -3.1481    0.0000 H       1  UNL1        0.0235
     42 H           3.7322   -3.3652    0.0000 H       1  UNL1        0.0235
     43 H           3.9494   -2.5157    0.0000 H       1  UNL1        0.0235
     44 H           6.0881   -1.4740    0.0000 H       1  UNL1        0.0257
     45 H           6.9350   -1.2470    0.0000 H       1  UNL1        0.0257
     46 H           6.7081   -0.4001    0.0000 H       1  UNL1        0.0257
     47 H           5.9453    2.1082    0.0000 H       1  UNL1        0.0373
     48 H           5.1470    2.1051    0.0000 H       1  UNL1        0.0373
     49 H           7.4477    0.4876    0.0000 H       1  UNL1        0.0261
     50 H           8.0701    1.1052    0.0000 H       1  UNL1        0.0261
     51 H           7.4525    1.7276    0.0000 H       1  UNL1        0.0261
     52 H           7.5734    1.9731    0.0000 H       1  UNL1        0.0595
     53 H           6.7688    3.3792    0.0000 H       1  UNL1        0.0533
     54 H           5.8368    2.8458    0.0000 H       1  UNL1        0.0533
@<TRIPOS>BOND
     1     1     7    1
     2     1    18    1
     3     2    14    2
     4     3     4    1
     5     3     5    1
     6     3     9    1
     7     3    13    1
     8     4     6    1
     9     4     8    1
    10     4    23    1
    11     5     7    1
    12     5    14    1
    13     5    24    1
    14     6    11    1
    15     6    15    1
    16     6    16    1
    17     7    10    1
    18     7    17    1
    19     8    10    1
    20     8    25    1
    21     8    26    1
    22     9    12    1
    23     9    27    1
    24     9    28    1
    25    10    29    1
    26    10    30    1
    27    11    12    1
    28    11    31    1
    29    11    32    1
    30    12    33    1
    31    12    34    1
    32    13    35    1
    33    13    36    1
    34    13    37    1
    35    14    19    1
    36    15    38    1
    37    15    39    1
    38    15    40    1
    39    16    41    1
    40    16    42    1
    41    16    43    1
    42    17    44    1
    43    17    45    1
    44    17    46    1
    45    18    19    1
    46    18    20    1
    47    18    21    1
    48    19    47    1
    49    19    48    1
    50    20    49    1
    51    20    50    1
    52    20    51    1
    53    21    22    2
    54    21    52    1
    55    22    53    1
    56    22    54    1
