@<TRIPOS>MOLECULE
IMPHY003571
 56 58 0 0 0
SMALL
GASTEIGER

@<TRIPOS>ATOM
      1 O           3.7320    2.6115    0.0000 O.3     1  UNL1       -0.4610
      2 O           8.9942    2.6356    0.0000 O.2     1  UNL1       -0.2924
      3 O           2.8660    1.1115    0.0000 O.2     1  UNL1       -0.2512
      4 O           8.5433   -3.4775    0.0000 O.2     1  UNL1       -0.4708
      5 C           6.3301    2.1115    0.0000 C.3     1  UNL1       -0.0164
      6 C           6.3301    1.1115    0.0000 C.3     1  UNL1       -0.0065
      7 C           5.4641    2.6115    0.0000 C.3     1  UNL1        0.0062
      8 C           4.5981    2.1115    0.0000 C.3     1  UNL1        0.1085
      9 C           5.4641    0.6115    0.0000 C.3     1  UNL1       -0.0403
     10 C           4.5981    1.1115    0.0000 C.3     1  UNL1       -0.0144
     11 C           7.2241    2.6462    0.0000 C.3     1  UNL1        0.0143
     12 C           7.2241    0.5768    0.0000 C.2     1  UNL1       -0.0568
     13 C           6.3301    0.1115    0.0000 C.3     1  UNL1       -0.0555
     14 C           4.9641    3.4775    0.0000 C.3     1  UNL1       -0.0562
     15 C           5.9641    3.4775    0.0000 C.3     1  UNL1       -0.0562
     16 C           8.1301    1.0907    0.0000 C.2     1  UNL1       -0.0083
     17 C           8.1301    2.1323    0.0000 C.2     1  UNL1        0.1593
     18 C           7.2125   -0.4231    0.0000 C.3     1  UNL1       -0.0265
     19 C           8.9942    0.5874    0.0000 C.3     1  UNL1       -0.0364
     20 C           8.0727   -0.9331    0.0000 C.3     1  UNL1       -0.0210
     21 C           2.8660    2.1115    0.0000 C.2     1  UNL1        0.3042
     22 C           8.0611   -1.9330    0.0000 C.ar    1  UNL1       -0.0094
     23 C           2.0000    2.6115    0.0000 C.3     1  UNL1        0.0332
     24 C           7.2454   -2.5114    0.0000 C.ar    1  UNL1       -0.0207
     25 C           8.8633   -2.5301    0.0000 C.ar    1  UNL1        0.0948
     26 C           7.5434   -3.4660    0.0000 C.ar    1  UNL1        0.0919
     27 H           6.3236    2.9615    0.0000 H       1  UNL1        0.0320
     28 H           4.5981    2.9615    0.0000 H       1  UNL1        0.0739
     29 H           5.0656    0.1366    0.0000 H       1  UNL1        0.0275
     30 H           5.8626    0.1366    0.0000 H       1  UNL1        0.0275
     31 H           3.9875    1.2192    0.0000 H       1  UNL1        0.0301
     32 H           4.3860    0.5289    0.0000 H       1  UNL1        0.0301
     33 H           7.6177    3.1252    0.0000 H       1  UNL1        0.0348
     34 H           6.8195    3.1160    0.0000 H       1  UNL1        0.0348
     35 H           5.7101    0.1115    0.0000 H       1  UNL1        0.0238
     36 H           6.3301   -0.5085    0.0000 H       1  UNL1        0.0238
     37 H           6.9501    0.1115    0.0000 H       1  UNL1        0.0238
     38 H           5.5010    3.7875    0.0000 H       1  UNL1        0.0236
     39 H           4.6541    4.0145    0.0000 H       1  UNL1        0.0236
     40 H           4.4272    3.1675    0.0000 H       1  UNL1        0.0236
     41 H           6.5010    3.1675    0.0000 H       1  UNL1        0.0236
     42 H           6.2741    4.0145    0.0000 H       1  UNL1        0.0236
     43 H           5.4272    3.7875    0.0000 H       1  UNL1        0.0236
     44 H           6.6032   -0.3084    0.0000 H       1  UNL1        0.0313
     45 H           6.9937   -1.0032    0.0000 H       1  UNL1        0.0313
     46 H           8.6822    0.0516    0.0000 H       1  UNL1        0.0279
     47 H           9.5300    0.2753    0.0000 H       1  UNL1        0.0279
     48 H           9.3063    1.1231    0.0000 H       1  UNL1        0.0279
     49 H           8.6820   -1.0478    0.0000 H       1  UNL1        0.0317
     50 H           8.2915   -0.3530    0.0000 H       1  UNL1        0.0317
     51 H           2.3100    3.1484    0.0000 H       1  UNL1        0.0342
     52 H           1.4631    2.9215    0.0000 H       1  UNL1        0.0342
     53 H           1.6900    2.0746    0.0000 H       1  UNL1        0.0342
     54 H           6.6580   -2.3130    0.0000 H       1  UNL1        0.0652
     55 H           9.4551   -2.3454    0.0000 H       1  UNL1        0.1032
     56 H           7.1732   -3.9633    0.0000 H       1  UNL1        0.1029
@<TRIPOS>BOND
     1     1     8    1
     2     1    21    1
     3     2    17    2
     4     3    21    2
     5     4    25   ar
     6     4    26   ar
     7     5     6    1
     8     5     7    1
     9     5    11    1
    10     5    27    1
    11     6     9    1
    12     6    12    1
    13     6    13    1
    14     7     8    1
    15     7    14    1
    16     7    15    1
    17     8    10    1
    18     8    28    1
    19     9    10    1
    20     9    29    1
    21     9    30    1
    22    10    31    1
    23    10    32    1
    24    11    17    1
    25    11    33    1
    26    11    34    1
    27    12    16    2
    28    12    18    1
    29    13    35    1
    30    13    36    1
    31    13    37    1
    32    14    38    1
    33    14    39    1
    34    14    40    1
    35    15    41    1
    36    15    42    1
    37    15    43    1
    38    16    17    1
    39    16    19    1
    40    18    20    1
    41    18    44    1
    42    18    45    1
    43    19    46    1
    44    19    47    1
    45    19    48    1
    46    20    22    1
    47    20    49    1
    48    20    50    1
    49    21    23    1
    50    22    24   ar
    51    22    25   ar
    52    23    51    1
    53    23    52    1
    54    23    53    1
    55    24    26   ar
    56    24    54    1
    57    25    55    1
    58    26    56    1
