@<TRIPOS>MOLECULE
IMPHY003263
 86 90 0 0 0
SMALL
GASTEIGER

@<TRIPOS>ATOM
      1 O          11.1246    2.0947    0.0000 O.3     1  UNL1       -0.4610
      2 O          10.2528    3.5914    0.0000 O.2     1  UNL1       -0.2512
      3 C           5.7847   -1.0496    0.0000 C.3     1  UNL1       -0.0194
      4 C           6.6507   -1.5496    0.0000 C.3     1  UNL1       -0.0051
      5 C           4.8746   -1.5565    0.0000 C.3     1  UNL1       -0.0289
      6 C           4.8666   -2.5981    0.0000 C.3     1  UNL1       -0.0286
      7 C           7.5167   -1.0496    0.0000 C.2     1  UNL1       -0.0633
      8 C           6.6667   -2.5912    0.0000 C.3     1  UNL1       -0.0429
      9 C           5.7847   -0.0496    0.0000 C.3     1  UNL1       -0.0428
     10 C           5.7687   -3.1189    0.0000 C.3     1  UNL1       -0.0465
     11 C           8.4106    0.4850    0.0000 C.3     1  UNL1       -0.0073
     12 C           3.9478   -0.9924    0.0000 C.3     1  UNL1       -0.0440
     13 C           7.5167   -0.0496    0.0000 C.2     1  UNL1       -0.0636
     14 C           9.3167   -0.0288    0.0000 C.3     1  UNL1       -0.0231
     15 C           3.9312   -3.1478    0.0000 C.3     1  UNL1       -0.0469
     16 C           6.6507    0.4504    0.0000 C.3     1  UNL1       -0.0304
     17 C           2.9999   -1.5204    0.0000 C.3     1  UNL1       -0.0346
     18 C           4.9186   -0.5496    0.0000 C.3     1  UNL1       -0.0585
     19 C           8.4106   -1.5843    0.0000 C.3     1  UNL1       -0.0306
     20 C           2.9916   -2.6053    0.0000 C.3     1  UNL1       -0.0474
     21 C           7.5167   -2.0497    0.0000 C.3     1  UNL1       -0.0553
     22 C          10.2605    0.5064    0.0000 C.3     1  UNL1        0.0058
     23 C           9.3167   -1.0705    0.0000 C.3     1  UNL1       -0.0451
     24 C           4.8589   -3.5981    0.0000 C.3     1  UNL1       -0.0593
     25 C           8.3856    1.5697    0.0000 C.3     1  UNL1       -0.0403
     26 C          10.2605    1.5914    0.0000 C.3     1  UNL1        0.1084
     27 C           9.3167    2.1266    0.0000 C.3     1  UNL1       -0.0144
     28 C           7.5408    0.9783    0.0000 C.3     1  UNL1       -0.0556
     29 C           2.0000   -1.5088    0.0000 C.3     1  UNL1       -0.0598
     30 C           2.5100   -0.6486    0.0000 C.3     1  UNL1       -0.0598
     31 C          11.2605    0.5026    0.0000 C.3     1  UNL1       -0.0562
     32 C          10.7572   -0.3615    0.0000 C.3     1  UNL1       -0.0562
     33 C          11.1207    3.0947    0.0000 C.2     1  UNL1        0.3042
     34 C          11.9848    3.5981    0.0000 C.3     1  UNL1        0.0332
     35 H           5.4080   -1.8727    0.0000 H       1  UNL1        0.0312
     36 H           6.8848   -3.1716    0.0000 H       1  UNL1        0.0274
     37 H           7.2759   -2.4757    0.0000 H       1  UNL1        0.0274
     38 H           5.5726    0.5330    0.0000 H       1  UNL1        0.0274
     39 H           5.1741   -0.1573    0.0000 H       1  UNL1        0.0274
     40 H           5.3714   -3.5949    0.0000 H       1  UNL1        0.0271
     41 H           6.1697   -3.5918    0.0000 H       1  UNL1        0.0271
     42 H           4.3560   -0.5258    0.0000 H       1  UNL1        0.0273
     43 H           3.5579   -0.5104    0.0000 H       1  UNL1        0.0273
     44 H           9.8524   -0.3409    0.0000 H       1  UNL1        0.0316
     45 H           3.5339   -3.6238    0.0000 H       1  UNL1        0.0271
     46 H           4.3322   -3.6207    0.0000 H       1  UNL1        0.0271
     47 H           7.0492    0.9253    0.0000 H       1  UNL1        0.0310
     48 H           6.2522    0.9253    0.0000 H       1  UNL1        0.0310
     49 H           5.2286   -0.0127    0.0000 H       1  UNL1        0.0235
     50 H           4.3817   -0.2396    0.0000 H       1  UNL1        0.0235
     51 H           4.6086   -1.0866    0.0000 H       1  UNL1        0.0235
     52 H           8.0060   -2.0541    0.0000 H       1  UNL1        0.0310
     53 H           8.8043   -2.0633    0.0000 H       1  UNL1        0.0310
     54 H           2.3816   -2.4945    0.0000 H       1  UNL1        0.0271
     55 H           2.7780   -3.1874    0.0000 H       1  UNL1        0.0271
     56 H           7.2067   -2.5866    0.0000 H       1  UNL1        0.0238
     57 H           8.0536   -2.3596    0.0000 H       1  UNL1        0.0238
     58 H           7.8267   -1.5127    0.0000 H       1  UNL1        0.0238
     59 H           9.5258   -1.6542    0.0000 H       1  UNL1        0.0271
     60 H           9.9276   -0.9644    0.0000 H       1  UNL1        0.0271
     61 H           4.2389   -3.5933    0.0000 H       1  UNL1        0.0235
     62 H           4.8541   -4.2180    0.0000 H       1  UNL1        0.0235
     63 H           5.4789   -3.6028    0.0000 H       1  UNL1        0.0235
     64 H           8.1631    2.1484    0.0000 H       1  UNL1        0.0275
     65 H           7.7773    1.4495    0.0000 H       1  UNL1        0.0275
     66 H          10.7980    1.2824    0.0000 H       1  UNL1        0.0739
     67 H           9.7103    2.6057    0.0000 H       1  UNL1        0.0301
     68 H           8.9121    2.5964    0.0000 H       1  UNL1        0.0301
     69 H           7.8466    1.5176    0.0000 H       1  UNL1        0.0238
     70 H           7.0015    1.2842    0.0000 H       1  UNL1        0.0238
     71 H           7.2349    0.4390    0.0000 H       1  UNL1        0.0238
     72 H           3.0505   -0.3448    0.0000 H       1  UNL1        0.0235
     73 H           2.2062   -0.1081    0.0000 H       1  UNL1        0.0235
     74 H           1.9695   -0.9524    0.0000 H       1  UNL1        0.0235
     75 H           2.0072   -0.8888    0.0000 H       1  UNL1        0.0235
     76 H           1.3800   -1.5016    0.0000 H       1  UNL1        0.0235
     77 H           1.9928   -2.1288    0.0000 H       1  UNL1        0.0235
     78 H          11.2581   -0.1174    0.0000 H       1  UNL1        0.0236
     79 H          11.8805    0.5002    0.0000 H       1  UNL1        0.0236
     80 H          11.2629    1.1226    0.0000 H       1  UNL1        0.0236
     81 H          10.2190   -0.6695    0.0000 H       1  UNL1        0.0236
     82 H          11.0651   -0.8997    0.0000 H       1  UNL1        0.0236
     83 H          11.2953   -0.0536    0.0000 H       1  UNL1        0.0236
     84 H          12.2969    3.0623    0.0000 H       1  UNL1        0.0342
     85 H          12.5206    3.9101    0.0000 H       1  UNL1        0.0342
     86 H          11.6728    4.1338    0.0000 H       1  UNL1        0.0342
@<TRIPOS>BOND
     1     1    26    1
     2     1    33    1
     3     2    33    2
     4     3     4    1
     5     3     5    1
     6     3     9    1
     7     3    18    1
     8     4     7    1
     9     4     8    1
    10     4    21    1
    11     5     6    1
    12     5    12    1
    13     5    35    1
    14     6    10    1
    15     6    15    1
    16     6    24    1
    17     7    13    2
    18     7    19    1
    19     8    10    1
    20     8    36    1
    21     8    37    1
    22     9    16    1
    23     9    38    1
    24     9    39    1
    25    10    40    1
    26    10    41    1
    27    11    13    1
    28    11    14    1
    29    11    25    1
    30    11    28    1
    31    12    17    1
    32    12    42    1
    33    12    43    1
    34    13    16    1
    35    14    22    1
    36    14    23    1
    37    14    44    1
    38    15    20    1
    39    15    45    1
    40    15    46    1
    41    16    47    1
    42    16    48    1
    43    17    20    1
    44    17    29    1
    45    17    30    1
    46    18    49    1
    47    18    50    1
    48    18    51    1
    49    19    23    1
    50    19    52    1
    51    19    53    1
    52    20    54    1
    53    20    55    1
    54    21    56    1
    55    21    57    1
    56    21    58    1
    57    22    26    1
    58    22    31    1
    59    22    32    1
    60    23    59    1
    61    23    60    1
    62    24    61    1
    63    24    62    1
    64    24    63    1
    65    25    27    1
    66    25    64    1
    67    25    65    1
    68    26    27    1
    69    26    66    1
    70    27    67    1
    71    27    68    1
    72    28    69    1
    73    28    70    1
    74    28    71    1
    75    29    75    1
    76    29    76    1
    77    29    77    1
    78    30    72    1
    79    30    73    1
    80    30    74    1
    81    31    78    1
    82    31    79    1
    83    31    80    1
    84    32    81    1
    85    32    82    1
    86    32    83    1
    87    33    34    1
    88    34    84    1
    89    34    85    1
    90    34    86    1
