@<TRIPOS>MOLECULE
IMPHY006641
 54 57 0 0 0
SMALL
GASTEIGER

@<TRIPOS>ATOM
      1 O           3.4326   -1.8542    0.0000 O.3     1  UNL1       -0.3844
      2 O           2.4072   -0.9965    0.0000 O.3     1  UNL1       -0.3863
      3 O           2.5405    0.7249    0.0000 O.3     1  UNL1       -0.3887
      4 O           3.8107    2.5878    0.0000 O.3     1  UNL1       -0.3837
      5 O           7.0009   -0.8238    0.0000 O.2     1  UNL1       -0.2967
      6 O           6.7797    2.3888    0.0000 O.2     1  UNL1       -0.4674
      7 C           5.1928   -0.8198    0.0000 C.3     1  UNL1        0.0614
      8 C           4.2947   -1.3475    0.0000 C.3     1  UNL1        0.1115
      9 C           5.1767    0.2217    0.0000 C.3     1  UNL1       -0.0112
     10 C           4.3107    0.7217    0.0000 C.3     1  UNL1        0.0246
     11 C           4.2864   -2.4325    0.0000 C.3     1  UNL1       -0.0022
     12 C           3.3926   -0.8267    0.0000 C.3     1  UNL1        0.1114
     13 C           3.4007    0.2149    0.0000 C.3     1  UNL1        0.0898
     14 C           4.3107    1.7217    0.0000 C.3     1  UNL1        0.0968
     15 C           6.0427    0.7217    0.0000 C.3     1  UNL1        0.0101
     16 C           6.1447   -1.3404    0.0000 C.2     1  UNL1        0.1423
     17 C           5.2260   -2.9750    0.0000 C.3     1  UNL1       -0.0384
     18 C           6.0549   -0.3131    0.0000 C.3     1  UNL1       -0.0498
     19 C           6.1614   -2.4253    0.0000 C.3     1  UNL1        0.0071
     20 C           5.1767    2.2217    0.0000 C.ar    1  UNL1        0.0249
     21 C           3.7830   -3.2966    0.0000 C.3     1  UNL1       -0.0571
     22 C           3.3454   -2.7709    0.0000 C.3     1  UNL1       -0.0571
     23 C           6.0427    1.7217    0.0000 C.ar    1  UNL1        0.1110
     24 C           3.3107    1.7217    0.0000 C.3     1  UNL1       -0.0314
     25 C           5.3859    3.1935    0.0000 C.ar    1  UNL1       -0.0177
     26 C           6.3746    3.2966    0.0000 C.ar    1  UNL1        0.0924
     27 H           5.7160   -0.0841    0.0000 H       1  UNL1        0.0320
     28 H           3.7761    1.0358    0.0000 H       1  UNL1        0.0361
     29 H           3.2838   -1.4371    0.0000 H       1  UNL1        0.0648
     30 H           2.8608   -0.0899    0.0000 H       1  UNL1        0.0624
     31 H           6.2548    0.1391    0.0000 H       1  UNL1        0.0347
     32 H           6.6533    0.8294    0.0000 H       1  UNL1        0.0347
     33 H           4.8287   -3.4510    0.0000 H       1  UNL1        0.0275
     34 H           5.6270   -3.4479    0.0000 H       1  UNL1        0.0275
     35 H           6.3690   -0.8477    0.0000 H       1  UNL1        0.0240
     36 H           6.5894    0.0010    0.0000 H       1  UNL1        0.0240
     37 H           5.7408    0.2214    0.0000 H       1  UNL1        0.0240
     38 H           6.3794   -3.0057    0.0000 H       1  UNL1        0.0342
     39 H           6.7706   -2.3098    0.0000 H       1  UNL1        0.0342
     40 H           3.2473   -2.9845    0.0000 H       1  UNL1        0.0236
     41 H           3.4710   -3.8323    0.0000 H       1  UNL1        0.0236
     42 H           4.3188   -3.6087    0.0000 H       1  UNL1        0.0236
     43 H           3.1356   -2.1875    0.0000 H       1  UNL1        0.0236
     44 H           2.7619   -2.9807    0.0000 H       1  UNL1        0.0236
     45 H           3.5552   -3.3543    0.0000 H       1  UNL1        0.0236
     46 H           2.8212   -1.7512    0.0000 H       1  UNL1        0.2103
     47 H           3.3107    2.3417    0.0000 H       1  UNL1        0.0261
     48 H           2.6907    1.7217    0.0000 H       1  UNL1        0.0261
     49 H           3.3107    1.1017    0.0000 H       1  UNL1        0.0261
     50 H           2.0105   -0.5200    0.0000 H       1  UNL1        0.2100
     51 H           2.0000    0.4211    0.0000 H       1  UNL1        0.2099
     52 H           3.1907    2.5878    0.0000 H       1  UNL1        0.2106
     53 H           4.9718    3.6550    0.0000 H       1  UNL1        0.0653
     54 H           6.6846    3.8335    0.0000 H       1  UNL1        0.1029
@<TRIPOS>BOND
     1     1     8    1
     2     1    46    1
     3     2    12    1
     4     2    50    1
     5     3    13    1
     6     3    51    1
     7     4    14    1
     8     4    52    1
     9     5    16    2
    10     6    23   ar
    11     6    26   ar
    12     7     8    1
    13     7     9    1
    14     7    16    1
    15     7    18    1
    16     8    11    1
    17     8    12    1
    18     9    10    1
    19     9    15    1
    20     9    27    1
    21    10    13    1
    22    10    14    1
    23    10    28    1
    24    11    17    1
    25    11    21    1
    26    11    22    1
    27    12    13    1
    28    12    29    1
    29    13    30    1
    30    14    20    1
    31    14    24    1
    32    15    23    1
    33    15    31    1
    34    15    32    1
    35    16    19    1
    36    17    19    1
    37    17    33    1
    38    17    34    1
    39    18    35    1
    40    18    36    1
    41    18    37    1
    42    19    38    1
    43    19    39    1
    44    20    23   ar
    45    20    25   ar
    46    21    40    1
    47    21    41    1
    48    21    42    1
    49    22    43    1
    50    22    44    1
    51    22    45    1
    52    24    47    1
    53    24    48    1
    54    24    49    1
    55    25    26   ar
    56    25    53    1
    57    26    54    1
