@<TRIPOS>MOLECULE
IMPHY014351
 134 145 0 0 0
SMALL
GASTEIGER

@<TRIPOS>ATOM
      1 O           6.7878   -1.5354    0.0000 O.3     1  UNL1       -0.4808
      2 O           9.5412    1.3300    0.0000 O.3     1  UNL1       -0.4808
      3 O           5.8158    0.9253    0.0000 O.3     1  UNL1       -0.3868
      4 O          11.2732    3.3300    0.0000 O.3     1  UNL1       -0.3868
      5 O           8.4371   -5.1509    0.0000 O.3     1  UNL1       -0.4811
      6 O           8.2175    4.8390    0.0000 O.3     1  UNL1       -0.4808
      7 O          10.1691   -3.1509    0.0000 O.3     1  UNL1       -0.3868
      8 O           5.8752    1.8053    0.0000 O.3     1  UNL1       -0.5062
      9 O           9.8732    0.4620    0.0000 O.3     1  UNL1       -0.5062
     10 O           7.4501    4.3082    0.0000 O.3     1  UNL1       -0.5062
     11 O          10.4044   -2.3009    0.0000 O.3     1  UNL1       -0.5062
     12 O          11.8077    4.1013    0.0000 O.3     1  UNL1       -0.5062
     13 O           7.2583    7.3791    0.0000 O.3     1  UNL1       -0.3875
     14 O           6.1872   -2.2445    0.0000 O.3     1  UNL1       -0.5062
     15 O          10.9093    7.0887    0.0000 O.3     1  UNL1       -0.5063
     16 O           4.9069   -5.1751    0.0000 O.3     1  UNL1       -0.5065
     17 O           3.5085   -3.0341    0.0000 O.3     1  UNL1       -0.5033
     18 O          13.8713    1.8300    0.0000 O.3     1  UNL1       -0.5033
     19 O           2.2053   -1.5170    0.0000 O.3     1  UNL1       -0.5033
     20 O          13.8713   -0.1700    0.0000 O.3     1  UNL1       -0.5033
     21 O          11.0351   -7.6509    0.0000 O.3     1  UNL1       -0.5033
     22 O          12.7672   -6.6509    0.0000 O.3     1  UNL1       -0.5033
     23 O           4.2821    6.8040    0.0000 O.3     1  UNL1       -0.5033
     24 O           3.6054    4.9221    0.0000 O.3     1  UNL1       -0.5033
     25 C           7.4501    0.3517    0.0000 C.3     1  UNL1        0.0528
     26 C           9.5412    3.3300    0.0000 C.3     1  UNL1        0.0528
     27 C           6.4674    0.1667    0.0000 C.3     1  UNL1        0.1074
     28 C           7.7812    1.2953    0.0000 C.ar    1  UNL1        0.0463
     29 C           8.1017   -0.4068    0.0000 C.ar    1  UNL1        0.0463
     30 C          10.4072    2.8300    0.0000 C.3     1  UNL1        0.1074
     31 C           8.6752    2.8300    0.0000 C.ar    1  UNL1        0.0463
     32 C           6.1363   -0.7769    0.0000 C.3     1  UNL1        0.1519
     33 C           8.6752    1.8300    0.0000 C.ar    1  UNL1        0.1361
     34 C           8.4371   -3.1509    0.0000 C.3     1  UNL1        0.0528
     35 C           7.7706   -1.3504    0.0000 C.ar    1  UNL1        0.1361
     36 C          10.4072    1.8300    0.0000 C.3     1  UNL1        0.1519
     37 C           8.4370   -2.1509    0.0000 C.ar    1  UNL1        0.0463
     38 C           9.8832    4.2697    0.0000 C.ar    1  UNL1        0.0463
     39 C           9.3031   -3.6509    0.0000 C.3     1  UNL1        0.1074
     40 C           6.8752    1.8092    0.0000 C.ar    1  UNL1        0.1277
     41 C           9.1222   -0.1984    0.0000 C.ar    1  UNL1        0.1277
     42 C           7.7812    3.3646    0.0000 C.ar    1  UNL1        0.1277
     43 C           9.3032   -4.6509    0.0000 C.3     1  UNL1        0.1518
     44 C           7.5710   -3.6509    0.0000 C.ar    1  UNL1        0.0461
     45 C           9.2404    5.0357    0.0000 C.ar    1  UNL1        0.1355
     46 C           5.1535   -0.9619    0.0000 C.ar    1  UNL1       -0.0012
     47 C           9.4621   -1.9661    0.0000 C.ar    1  UNL1        0.1277
     48 C          11.2732    1.3300    0.0000 C.ar    1  UNL1       -0.0012
     49 C           6.8752    2.8508    0.0000 C.ar    1  UNL1        0.0221
     50 C           9.5824    5.9754    0.0000 C.ar    1  UNL1        0.0387
     51 C           9.8070   -0.9832    0.0000 C.ar    1  UNL1        0.0221
     52 C          10.8680    4.4433    0.0000 C.ar    1  UNL1        0.1277
     53 C           7.5710   -4.6509    0.0000 C.ar    1  UNL1        0.1323
     54 C           8.9253    6.7836    0.0000 C.3     1  UNL1        0.0092
     55 C           7.8981    6.6106    0.0000 C.3     1  UNL1        0.1004
     56 C           7.5418    5.6318    0.0000 C.3     1  UNL1        0.1513
     57 C          10.1691   -5.1509    0.0000 C.ar    1  UNL1       -0.0012
     58 C           6.6770   -3.1162    0.0000 C.ar    1  UNL1        0.1276
     59 C          10.5673    6.1490    0.0000 C.ar    1  UNL1        0.1271
     60 C          11.2100    5.3830    0.0000 C.ar    1  UNL1        0.0221
     61 C           4.8224   -1.9055    0.0000 C.ar    1  UNL1       -0.0098
     62 C           4.5019   -0.2034    0.0000 C.ar    1  UNL1       -0.0513
     63 C          12.1393    1.8300    0.0000 C.ar    1  UNL1       -0.0098
     64 C          11.2732    0.3300    0.0000 C.ar    1  UNL1       -0.0513
     65 C           6.6771   -5.1856    0.0000 C.ar    1  UNL1        0.0221
     66 C           6.5577    5.4543    0.0000 C.ar    1  UNL1       -0.0012
     67 C           5.7710   -3.6301    0.0000 C.ar    1  UNL1        0.0218
     68 C           5.7710   -4.6717    0.0000 C.ar    1  UNL1        0.1238
     69 C           3.8397   -2.0906    0.0000 C.ar    1  UNL1        0.1586
     70 C          10.1691   -6.1509    0.0000 C.ar    1  UNL1       -0.0098
     71 C          11.0351   -4.6509    0.0000 C.ar    1  UNL1       -0.0513
     72 C           3.5192   -0.3884    0.0000 C.ar    1  UNL1       -0.0162
     73 C          13.0053    1.3300    0.0000 C.ar    1  UNL1        0.1586
     74 C          12.1393   -0.1700    0.0000 C.ar    1  UNL1       -0.0162
     75 C           3.1880   -1.3320    0.0000 C.ar    1  UNL1        0.1582
     76 C          13.0053    0.3300    0.0000 C.ar    1  UNL1        0.1582
     77 C           5.9120    6.2179    0.0000 C.ar    1  UNL1       -0.0098
     78 C           6.2194    4.5134    0.0000 C.ar    1  UNL1       -0.0513
     79 C          11.0351   -6.6509    0.0000 C.ar    1  UNL1        0.1586
     80 C          11.9011   -5.1509    0.0000 C.ar    1  UNL1       -0.0162
     81 C          11.9011   -6.1509    0.0000 C.ar    1  UNL1        0.1582
     82 C           4.9279    6.0405    0.0000 C.ar    1  UNL1        0.1586
     83 C           5.2352    4.3360    0.0000 C.ar    1  UNL1       -0.0162
     84 C           4.5895    5.0996    0.0000 C.ar    1  UNL1        0.1582
     85 H           6.8962    0.9965    0.0000 H       1  UNL1        0.0429
     86 H          10.3399    3.6207    0.0000 H       1  UNL1        0.0429
     87 H           5.8581    0.0520    0.0000 H       1  UNL1        0.0643
     88 H          10.9442    2.5200    0.0000 H       1  UNL1        0.0643
     89 H           5.9310   -1.3620    0.0000 H       1  UNL1        0.0811
     90 H           9.1732   -2.7259    0.0000 H       1  UNL1        0.0429
     91 H          10.4072    1.2100    0.0000 H       1  UNL1        0.0811
     92 H           9.3031   -3.0309    0.0000 H       1  UNL1        0.0643
     93 H           9.8401   -4.3409    0.0000 H       1  UNL1        0.0811
     94 H           6.3394    3.1628    0.0000 H       1  UNL1        0.0691
     95 H          10.4159   -0.8662    0.0000 H       1  UNL1        0.0691
     96 H           5.2065    0.8106    0.0000 H       1  UNL1        0.2100
     97 H           9.4662    7.0866    0.0000 H       1  UNL1        0.0342
     98 H           8.7192    7.3683    0.0000 H       1  UNL1        0.0342
     99 H           7.2873    6.5041    0.0000 H       1  UNL1        0.0637
    100 H           7.1424    6.1060    0.0000 H       1  UNL1        0.0811
    101 H          11.8102    3.0200    0.0000 H       1  UNL1        0.2100
    102 H          11.8206    5.4907    0.0000 H       1  UNL1        0.0691
    103 H           5.2264   -2.3758    0.0000 H       1  UNL1        0.0659
    104 H           4.7072    0.3817    0.0000 H       1  UNL1        0.0623
    105 H          10.7060   -3.4609    0.0000 H       1  UNL1        0.2100
    106 H          12.1393    2.4500    0.0000 H       1  UNL1        0.0659
    107 H          10.7363    0.0200    0.0000 H       1  UNL1        0.0623
    108 H           6.6842   -5.8056    0.0000 H       1  UNL1        0.0691
    109 H           5.5631    2.3411    0.0000 H       1  UNL1        0.2921
    110 H          10.4606    0.2635    0.0000 H       1  UNL1        0.2921
    111 H           6.8408    4.4229    0.0000 H       1  UNL1        0.2921
    112 H           5.2353   -3.3180    0.0000 H       1  UNL1        0.0691
    113 H          10.8763   -1.8987    0.0000 H       1  UNL1        0.2921
    114 H           9.6322   -6.4609    0.0000 H       1  UNL1        0.0659
    115 H          11.0351   -4.0309    0.0000 H       1  UNL1        0.0623
    116 H           3.1152    0.0819    0.0000 H       1  UNL1        0.0655
    117 H          12.2827    4.4998    0.0000 H       1  UNL1        0.2921
    118 H          12.1393   -0.7900    0.0000 H       1  UNL1        0.0655
    119 H           7.4726    7.9609    0.0000 H       1  UNL1        0.2100
    120 H           5.5673   -2.2373    0.0000 H       1  UNL1        0.2921
    121 H           6.1218    6.8013    0.0000 H       1  UNL1        0.0659
    122 H           6.6197    4.0400    0.0000 H       1  UNL1        0.0623
    123 H          11.5199    7.1964    0.0000 H       1  UNL1        0.2921
    124 H          12.4381   -4.8409    0.0000 H       1  UNL1        0.0655
    125 H           5.0254    3.7526    0.0000 H       1  UNL1        0.0655
    126 H           4.9093   -5.7951    0.0000 H       1  UNL1        0.2921
    127 H           2.8992   -3.1488    0.0000 H       1  UNL1        0.2923
    128 H          14.4083    1.5200    0.0000 H       1  UNL1        0.2923
    129 H           2.0000   -2.1020    0.0000 H       1  UNL1        0.2923
    130 H          13.8713   -0.7900    0.0000 H       1  UNL1        0.2923
    131 H          10.4983   -7.9609    0.0000 H       1  UNL1        0.2923
    132 H          12.7672   -7.2709    0.0000 H       1  UNL1        0.2923
    133 H           3.6720    6.6940    0.0000 H       1  UNL1        0.2923
    134 H           3.3955    4.3387    0.0000 H       1  UNL1        0.2923
@<TRIPOS>BOND
     1     1    32    1
     2     1    35    1
     3     2    33    1
     4     2    36    1
     5    27     3    1
     6     3    96    1
     7    30     4    1
     8     4   101    1
     9     5    43    1
    10     5    53    1
    11     6    45    1
    12     6    56    1
    13    39     7    1
    14     7   105    1
    15     8    40    1
    16     8   109    1
    17     9    41    1
    18     9   110    1
    19    10    42    1
    20    10   111    1
    21    11    47    1
    22    11   113    1
    23    12    52    1
    24    12   117    1
    25    55    13    1
    26    13   119    1
    27    14    58    1
    28    14   120    1
    29    15    59    1
    30    15   123    1
    31    16    68    1
    32    16   126    1
    33    17    69    1
    34    17   127    1
    35    18    73    1
    36    18   128    1
    37    19    75    1
    38    19   129    1
    39    20    76    1
    40    20   130    1
    41    21    79    1
    42    21   131    1
    43    22    81    1
    44    22   132    1
    45    23    82    1
    46    23   133    1
    47    24    84    1
    48    24   134    1
    49    25    27    1
    50    25    28    1
    51    25    29    1
    52    25    85    1
    53    26    30    1
    54    26    31    1
    55    26    38    1
    56    26    86    1
    57    27    32    1
    58    27    87    1
    59    28    33   ar
    60    28    40   ar
    61    29    35   ar
    62    29    41   ar
    63    30    36    1
    64    30    88    1
    65    31    33   ar
    66    31    42   ar
    67    32    46    1
    68    32    89    1
    69    34    37    1
    70    34    39    1
    71    34    44    1
    72    34    90    1
    73    35    37   ar
    74    36    48    1
    75    36    91    1
    76    37    47   ar
    77    38    45   ar
    78    38    52   ar
    79    39    43    1
    80    39    92    1
    81    40    49   ar
    82    41    51   ar
    83    42    49   ar
    84    43    57    1
    85    43    93    1
    86    44    53   ar
    87    44    58   ar
    88    45    50   ar
    89    46    61   ar
    90    46    62   ar
    91    47    51   ar
    92    48    63   ar
    93    48    64   ar
    94    49    94    1
    95    50    54    1
    96    50    59   ar
    97    51    95    1
    98    52    60   ar
    99    53    65   ar
   100    54    55    1
   101    54    97    1
   102    54    98    1
   103    55    56    1
   104    55    99    1
   105    56    66    1
   106    56   100    1
   107    57    70   ar
   108    57    71   ar
   109    58    67   ar
   110    59    60   ar
   111    60   102    1
   112    61    69   ar
   113    61   103    1
   114    62    72   ar
   115    62   104    1
   116    63    73   ar
   117    63   106    1
   118    64    74   ar
   119    64   107    1
   120    65    68   ar
   121    65   108    1
   122    66    77   ar
   123    66    78   ar
   124    67    68   ar
   125    67   112    1
   126    69    75   ar
   127    70    79   ar
   128    70   114    1
   129    71    80   ar
   130    71   115    1
   131    72    75   ar
   132    72   116    1
   133    73    76   ar
   134    74    76   ar
   135    74   118    1
   136    77    82   ar
   137    77   121    1
   138    78    83   ar
   139    78   122    1
   140    79    81   ar
   141    80    81   ar
   142    80   124    1
   143    82    84   ar
   144    83    84   ar
   145    83   125    1
