@<TRIPOS>MOLECULE
IMPHY005084
 81 85 0 0 0
SMALL
GASTEIGER

@<TRIPOS>ATOM
      1 O           2.5357   -1.9563    0.0000 O.3     1  UNL1       -0.3907
      2 O           4.3500   -3.7342    0.0000 O.3     1  UNL1       -0.4802
      3 O           2.8467   -2.8739    0.0000 O.2     1  UNL1       -0.2503
      4 C           7.0628   -0.4039    0.0000 C.3     1  UNL1       -0.0194
      5 C           6.1968    0.0961    0.0000 C.3     1  UNL1       -0.0257
      6 C           7.9288    0.0961    0.0000 C.3     1  UNL1       -0.0051
      7 C           5.2868   -0.4108    0.0000 C.3     1  UNL1       -0.0244
      8 C           5.2787   -1.4524    0.0000 C.3     1  UNL1       -0.0174
      9 C           7.0789   -1.4454    0.0000 C.3     1  UNL1       -0.0463
     10 C           7.9288    1.0961    0.0000 C.2     1  UNL1       -0.0632
     11 C           8.8228    1.6307    0.0000 C.3     1  UNL1       -0.0111
     12 C           9.7288    1.1169    0.0000 C.3     1  UNL1       -0.0253
     13 C           6.1808   -1.9732    0.0000 C.3     1  UNL1       -0.0481
     14 C           8.8228   -0.4386    0.0000 C.3     1  UNL1       -0.0429
     15 C           6.1968    1.0961    0.0000 C.3     1  UNL1       -0.0306
     16 C           4.3433   -2.0021    0.0000 C.3     1  UNL1        0.0938
     17 C           4.3599    0.1533    0.0000 C.3     1  UNL1       -0.0447
     18 C           9.7288    0.0752    0.0000 C.3     1  UNL1       -0.0463
     19 C           7.7056   -1.1700    0.0000 C.3     1  UNL1       -0.0585
     20 C           7.0628    1.5961    0.0000 C.2     1  UNL1       -0.0836
     21 C           8.7977    2.7154    0.0000 C.3     1  UNL1       -0.0343
     22 C           8.2709   -0.8436    0.0000 C.3     1  UNL1       -0.0553
     23 C           5.2945    0.5892    0.0000 C.3     1  UNL1       -0.0590
     24 C           3.4037   -1.4596    0.0000 C.3     1  UNL1        0.0710
     25 C           3.4120   -0.3747    0.0000 C.3     1  UNL1       -0.0253
     26 C          10.6726    1.6521    0.0000 C.3     1  UNL1       -0.0468
     27 C           9.7288    3.2723    0.0000 C.3     1  UNL1       -0.0407
     28 C          10.6726    2.7371    0.0000 C.3     1  UNL1       -0.0497
     29 C          10.5987    0.6236    0.0000 C.3     1  UNL1       -0.0590
     30 C           4.8466   -2.8662    0.0000 C.3     1  UNL1       -0.0467
     31 C           3.8467   -2.8701    0.0000 C.2     1  UNL1        0.3135
     32 C           7.9222    3.1986    0.0000 C.3     1  UNL1       -0.0616
     33 C           9.7173    4.2723    0.0000 C.3     1  UNL1       -0.0622
     34 H           6.9329    0.5211    0.0000 H       1  UNL1        0.0315
     35 H           5.2820   -2.3024    0.0000 H       1  UNL1        0.0317
     36 H           7.2969   -2.0258    0.0000 H       1  UNL1        0.0271
     37 H           7.6880   -1.3300    0.0000 H       1  UNL1        0.0271
     38 H           8.0786    2.0415    0.0000 H       1  UNL1        0.0354
     39 H           5.7835   -2.4492    0.0000 H       1  UNL1        0.0269
     40 H           6.5818   -2.4461    0.0000 H       1  UNL1        0.0269
     41 H           8.4182   -0.9084    0.0000 H       1  UNL1        0.0274
     42 H           9.2164   -0.9176    0.0000 H       1  UNL1        0.0274
     43 H           5.9847    1.6787    0.0000 H       1  UNL1        0.0310
     44 H           5.5862    0.9884    0.0000 H       1  UNL1        0.0310
     45 H           4.7681    0.6199    0.0000 H       1  UNL1        0.0271
     46 H           3.9700    0.6353    0.0000 H       1  UNL1        0.0271
     47 H           9.9379   -0.5084    0.0000 H       1  UNL1        0.0271
     48 H          10.3397    0.1813    0.0000 H       1  UNL1        0.0271
     49 H           7.2306   -1.5685    0.0000 H       1  UNL1        0.0235
     50 H           8.1041   -1.6449    0.0000 H       1  UNL1        0.0235
     51 H           8.1805   -0.7715    0.0000 H       1  UNL1        0.0235
     52 H           7.0628    2.2161    0.0000 H       1  UNL1        0.0572
     53 H           8.2674    2.3941    0.0000 H       1  UNL1        0.0307
     54 H           7.6884   -1.0557    0.0000 H       1  UNL1        0.0238
     55 H           8.4830   -1.4262    0.0000 H       1  UNL1        0.0238
     56 H           8.8535   -0.6315    0.0000 H       1  UNL1        0.0238
     57 H           5.9145    0.5844    0.0000 H       1  UNL1        0.0235
     58 H           5.2993    1.2092    0.0000 H       1  UNL1        0.0235
     59 H           4.6745    0.5940    0.0000 H       1  UNL1        0.0235
     60 H           3.4025   -2.0796    0.0000 H       1  UNL1        0.0604
     61 H           3.2075    0.2106    0.0000 H       1  UNL1        0.0291
     62 H           2.8004   -0.4760    0.0000 H       1  UNL1        0.0291
     63 H          10.8817    1.0684    0.0000 H       1  UNL1        0.0271
     64 H          11.2835    1.7582    0.0000 H       1  UNL1        0.0271
     65 H          10.2628    3.5875    0.0000 H       1  UNL1        0.0301
     66 H          11.2835    2.6310    0.0000 H       1  UNL1        0.0268
     67 H          10.8817    3.3208    0.0000 H       1  UNL1        0.0268
     68 H          10.2928    0.0843    0.0000 H       1  UNL1        0.0235
     69 H          11.1380    0.3177    0.0000 H       1  UNL1        0.0235
     70 H          10.9045    1.1629    0.0000 H       1  UNL1        0.0235
     71 H           4.3109   -3.1783    0.0000 H       1  UNL1        0.0241
     72 H           5.1587   -3.4019    0.0000 H       1  UNL1        0.0241
     73 H           5.3824   -2.5541    0.0000 H       1  UNL1        0.0241
     74 H           8.2218    3.7414    0.0000 H       1  UNL1        0.0233
     75 H           7.3794    3.4982    0.0000 H       1  UNL1        0.0233
     76 H           7.6226    2.6558    0.0000 H       1  UNL1        0.0233
     77 H          10.3372    4.2794    0.0000 H       1  UNL1        0.0233
     78 H           9.7101    4.8922    0.0000 H       1  UNL1        0.0233
     79 H           9.0973    4.2651    0.0000 H       1  UNL1        0.0233
     80 H           2.0000   -1.6442    0.0000 H       1  UNL1        0.2098
     81 H           4.0421   -4.2723    0.0000 H       1  UNL1        0.2951
@<TRIPOS>BOND
     1    24     1    1
     2     1    80    1
     3     2    31    1
     4     2    81    1
     5     3    31    2
     6     4     5    1
     7     4     6    1
     8     4     9    1
     9     4    19    1
    10     5     7    1
    11     5    15    1
    12     5    34    1
    13     6    10    1
    14     6    14    1
    15     6    22    1
    16     7     8    1
    17     7    17    1
    18     7    23    1
    19     8    13    1
    20     8    16    1
    21     8    35    1
    22     9    13    1
    23     9    36    1
    24     9    37    1
    25    10    11    1
    26    10    20    2
    27    11    12    1
    28    11    21    1
    29    11    38    1
    30    12    18    1
    31    12    26    1
    32    12    29    1
    33    13    39    1
    34    13    40    1
    35    14    18    1
    36    14    41    1
    37    14    42    1
    38    15    20    1
    39    15    43    1
    40    15    44    1
    41    16    24    1
    42    16    30    1
    43    16    31    1
    44    17    25    1
    45    17    45    1
    46    17    46    1
    47    18    47    1
    48    18    48    1
    49    19    49    1
    50    19    50    1
    51    19    51    1
    52    20    52    1
    53    21    27    1
    54    21    32    1
    55    21    53    1
    56    22    54    1
    57    22    55    1
    58    22    56    1
    59    23    57    1
    60    23    58    1
    61    23    59    1
    62    24    25    1
    63    24    60    1
    64    25    61    1
    65    25    62    1
    66    26    28    1
    67    26    63    1
    68    26    64    1
    69    27    28    1
    70    27    33    1
    71    27    65    1
    72    28    66    1
    73    28    67    1
    74    29    68    1
    75    29    69    1
    76    29    70    1
    77    30    71    1
    78    30    72    1
    79    30    73    1
    80    32    74    1
    81    32    75    1
    82    32    76    1
    83    33    77    1
    84    33    78    1
    85    33    79    1
