@<TRIPOS>MOLECULE
IMPHY016009
 61 60 0 0 0
SMALL
GASTEIGER

@<TRIPOS>ATOM
      1 O           2.0000    1.1900    0.0000 O.3     1  UNL1       -0.3910
      2 C          10.6603   -0.8100    0.0000 C.3     1  UNL1       -0.0439
      3 C           9.7942   -0.3100    0.0000 C.3     1  UNL1       -0.0505
      4 C           7.1962   -0.8100    0.0000 C.3     1  UNL1       -0.0439
      5 C           8.9282   -0.8100    0.0000 C.3     1  UNL1       -0.0526
      6 C           8.0622   -0.3100    0.0000 C.3     1  UNL1       -0.0505
      7 C          11.5263   -0.3100    0.0000 C.3     1  UNL1       -0.0505
      8 C           6.3301   -0.3100    0.0000 C.3     1  UNL1       -0.0502
      9 C          12.3923   -0.8100    0.0000 C.3     1  UNL1       -0.0526
     10 C          13.2583   -0.3100    0.0000 C.3     1  UNL1       -0.0507
     11 C          10.6603   -1.8100    0.0000 C.3     1  UNL1       -0.0624
     12 C           5.4641   -0.8100    0.0000 C.3     1  UNL1       -0.0491
     13 C           7.1962   -1.8100    0.0000 C.3     1  UNL1       -0.0624
     14 C          14.1244   -0.8100    0.0000 C.3     1  UNL1       -0.0467
     15 C           4.5981   -0.3100    0.0000 C.3     1  UNL1       -0.0319
     16 C          14.9904   -0.3100    0.0000 C.3     1  UNL1       -0.0627
     17 C          14.1244   -1.8100    0.0000 C.3     1  UNL1       -0.0627
     18 C           3.7320   -0.8100    0.0000 C.2     1  UNL1       -0.0744
     19 C           3.7320   -1.8100    0.0000 C.3     1  UNL1       -0.0437
     20 C           2.8660   -0.3100    0.0000 C.2     1  UNL1       -0.0600
     21 C           2.8660    0.6900    0.0000 C.3     1  UNL1        0.0626
     22 H          11.1972   -1.1200    0.0000 H       1  UNL1        0.0298
     23 H          10.1928    0.1649    0.0000 H       1  UNL1        0.0268
     24 H           9.3957    0.1649    0.0000 H       1  UNL1        0.0268
     25 H           6.6592   -1.1200    0.0000 H       1  UNL1        0.0298
     26 H           8.5297   -1.2850    0.0000 H       1  UNL1        0.0265
     27 H           9.3267   -1.2850    0.0000 H       1  UNL1        0.0265
     28 H           8.4607    0.1649    0.0000 H       1  UNL1        0.0268
     29 H           7.6636    0.1649    0.0000 H       1  UNL1        0.0268
     30 H          11.9248    0.1649    0.0000 H       1  UNL1        0.0268
     31 H          11.1278    0.1649    0.0000 H       1  UNL1        0.0268
     32 H           6.7287    0.1649    0.0000 H       1  UNL1        0.0268
     33 H           5.9316    0.1649    0.0000 H       1  UNL1        0.0268
     34 H          11.9938   -1.2850    0.0000 H       1  UNL1        0.0265
     35 H          12.7908   -1.2850    0.0000 H       1  UNL1        0.0265
     36 H          13.6569    0.1649    0.0000 H       1  UNL1        0.0268
     37 H          12.8598    0.1649    0.0000 H       1  UNL1        0.0268
     38 H          10.0403   -1.8100    0.0000 H       1  UNL1        0.0232
     39 H          10.6603   -2.4300    0.0000 H       1  UNL1        0.0232
     40 H          11.2803   -1.8100    0.0000 H       1  UNL1        0.0232
     41 H           5.0656   -1.2850    0.0000 H       1  UNL1        0.0268
     42 H           5.8626   -1.2850    0.0000 H       1  UNL1        0.0268
     43 H           6.5762   -1.8100    0.0000 H       1  UNL1        0.0232
     44 H           7.1962   -2.4300    0.0000 H       1  UNL1        0.0232
     45 H           7.8162   -1.8100    0.0000 H       1  UNL1        0.0232
     46 H          13.5874   -1.1200    0.0000 H       1  UNL1        0.0295
     47 H           4.9966    0.1649    0.0000 H       1  UNL1        0.0310
     48 H           4.1996    0.1649    0.0000 H       1  UNL1        0.0310
     49 H          15.3004   -0.8469    0.0000 H       1  UNL1        0.0232
     50 H          15.5273   -0.0000    0.0000 H       1  UNL1        0.0232
     51 H          14.6804    0.2269    0.0000 H       1  UNL1        0.0232
     52 H          13.5044   -1.8100    0.0000 H       1  UNL1        0.0232
     53 H          14.1244   -2.4300    0.0000 H       1  UNL1        0.0232
     54 H          14.7444   -1.8100    0.0000 H       1  UNL1        0.0232
     55 H           3.1120   -1.8100    0.0000 H       1  UNL1        0.0274
     56 H           3.7320   -2.4300    0.0000 H       1  UNL1        0.0274
     57 H           4.3520   -1.8100    0.0000 H       1  UNL1        0.0274
     58 H           2.3291   -0.6200    0.0000 H       1  UNL1        0.0594
     59 H           3.4766    0.5823    0.0000 H       1  UNL1        0.0601
     60 H           3.0781    1.2726    0.0000 H       1  UNL1        0.0601
     61 H           2.0000    1.8100    0.0000 H       1  UNL1        0.2098
@<TRIPOS>BOND
     1     1    21    1
     2     1    61    1
     3     2     3    1
     4     2     7    1
     5     2    11    1
     6     2    22    1
     7     3     5    1
     8     3    23    1
     9     3    24    1
    10     4     6    1
    11     4     8    1
    12     4    13    1
    13     4    25    1
    14     5     6    1
    15     5    26    1
    16     5    27    1
    17     6    28    1
    18     6    29    1
    19     7     9    1
    20     7    30    1
    21     7    31    1
    22     8    12    1
    23     8    32    1
    24     8    33    1
    25     9    10    1
    26     9    34    1
    27     9    35    1
    28    10    14    1
    29    10    36    1
    30    10    37    1
    31    11    38    1
    32    11    39    1
    33    11    40    1
    34    12    15    1
    35    12    41    1
    36    12    42    1
    37    13    43    1
    38    13    44    1
    39    13    45    1
    40    14    16    1
    41    14    17    1
    42    14    46    1
    43    15    18    1
    44    15    47    1
    45    15    48    1
    46    16    49    1
    47    16    50    1
    48    16    51    1
    49    17    52    1
    50    17    53    1
    51    17    54    1
    52    18    19    1
    53    18    20    2
    54    19    55    1
    55    19    56    1
    56    19    57    1
    57    20    21    1
    58    20    58    1
    59    21    59    1
    60    21    60    1
