@<TRIPOS>MOLECULE
IMPHY012028
 11 10 0 0 0
SMALL
GASTEIGER

@<TRIPOS>ATOM
      1 O           2.5369    0.7500    0.0000 O.3     1  UNL1       -0.4806
      2 O           3.4030   -0.7500    0.0000 O.2     1  UNL1       -0.2510
      3 C           4.2690    0.7500    0.0000 C.3     1  UNL1        0.0420
      4 C           5.1350    0.2500    0.0000 C.3     1  UNL1       -0.0552
      5 C           3.4030    0.2500    0.0000 C.2     1  UNL1        0.3044
      6 H           4.6675    1.2250    0.0000 H       1  UNL1        0.0375
      7 H           3.8705    1.2250    0.0000 H       1  UNL1        0.0375
      8 H           4.8250   -0.2869    0.0000 H       1  UNL1        0.0235
      9 H           5.6720   -0.0600    0.0000 H       1  UNL1        0.0235
     10 H           5.4450    0.7869    0.0000 H       1  UNL1        0.0235
     11 H           2.0000    0.4400    0.0000 H       1  UNL1        0.2951
@<TRIPOS>BOND
     1     1     5    1
     2     1    11    1
     3     2     5    2
     4     3     4    1
     5     3     5    1
     6     3     6    1
     7     3     7    1
     8     4     8    1
     9     4     9    1
    10     4    10    1
