@<TRIPOS>MOLECULE
IMPHY012200
 20 20 0 0 0
SMALL
GASTEIGER

@<TRIPOS>ATOM
      1 O           4.0823   -1.1739    0.0000 O.2     1  UNL1       -0.4819
      2 O           2.9945    1.1739    0.0000 O.2     1  UNL1       -0.4888
      3 O           5.1701    1.1739    0.0000 O.2     1  UNL1       -0.2847
      4 C           4.8913   -0.5861    0.0000 C.3     1  UNL1        0.1623
      5 C           4.5823    0.3649    0.0000 C.2     1  UNL1        0.2404
      6 C           3.2733   -0.5861    0.0000 C.2     1  UNL1        0.1406
      7 C           3.5823    0.3649    0.0000 C.2     1  UNL1        0.2035
      8 C           5.8424   -0.8952    0.0000 C.3     1  UNL1       -0.0203
      9 C           2.3222   -0.8952    0.0000 C.3     1  UNL1       -0.0032
     10 C           2.0000    1.0694    0.0000 C.3     1  UNL1        0.0791
     11 H           4.9883   -1.1985    0.0000 H       1  UNL1        0.0815
     12 H           5.6508   -1.4848    0.0000 H       1  UNL1        0.0270
     13 H           6.4320   -1.0868    0.0000 H       1  UNL1        0.0270
     14 H           6.0340   -0.3055    0.0000 H       1  UNL1        0.0270
     15 H           2.1306   -0.3055    0.0000 H       1  UNL1        0.0309
     16 H           1.7326   -1.0868    0.0000 H       1  UNL1        0.0309
     17 H           2.5138   -1.4848    0.0000 H       1  UNL1        0.0309
     18 H           1.9352    1.6860    0.0000 H       1  UNL1        0.0660
     19 H           1.3834    1.0046    0.0000 H       1  UNL1        0.0660
     20 H           2.0648    0.4528    0.0000 H       1  UNL1        0.0660
@<TRIPOS>BOND
     1     1     4    1
     2     1     6    1
     3     2     7    1
     4     2    10    1
     5     3     5    2
     6     4     5    1
     7     4     8    1
     8     4    11    1
     9     5     7    1
    10     6     7    2
    11     6     9    1
    12     8    12    1
    13     8    13    1
    14     8    14    1
    15     9    15    1
    16     9    16    1
    17     9    17    1
    18    10    18    1
    19    10    19    1
    20    10    20    1
