@<TRIPOS>MOLECULE
IMPHY015575
 42 43 0 0 0
SMALL
GASTEIGER

@<TRIPOS>ATOM
      1 O           2.8660    0.7327    0.0000 O.3     1  UNL1       -0.4647
      2 O           3.7320   -0.7673    0.0000 O.2     1  UNL1       -0.2453
      3 C           7.1962   -0.7673    0.0000 C.3     1  UNL1       -0.0255
      4 C           7.1962    0.2327    0.0000 C.3     1  UNL1       -0.0142
      5 C           6.3301   -1.2673    0.0000 C.3     1  UNL1       -0.0465
      6 C           6.3301    0.7327    0.0000 C.3     1  UNL1       -0.0390
      7 C           8.0901   -1.3020    0.0000 C.3     1  UNL1       -0.0468
      8 C           5.4641    0.2327    0.0000 C.3     1  UNL1       -0.0091
      9 C           5.4641   -0.7673    0.0000 C.3     1  UNL1       -0.0455
     10 C           8.0901    0.7674    0.0000 C.2     1  UNL1       -0.0730
     11 C           8.9962   -0.7881    0.0000 C.3     1  UNL1       -0.0489
     12 C           7.1962   -1.7673    0.0000 C.3     1  UNL1       -0.0590
     13 C           8.9962    0.2535    0.0000 C.3     1  UNL1       -0.0317
     14 C           4.5981    0.7327    0.0000 C.2     1  UNL1        0.0326
     15 C           8.0785    1.7673    0.0000 C.2     1  UNL1       -0.0992
     16 C           3.7320    0.2327    0.0000 C.2     1  UNL1        0.3346
     17 C           4.5981    1.7327    0.0000 C.2     1  UNL1       -0.0885
     18 C           2.0000    0.2327    0.0000 C.3     1  UNL1        0.0820
     19 H           7.1896    1.0827    0.0000 H       1  UNL1        0.0351
     20 H           5.9316   -1.7422    0.0000 H       1  UNL1        0.0271
     21 H           6.7287   -1.7422    0.0000 H       1  UNL1        0.0271
     22 H           6.7287    1.2076    0.0000 H       1  UNL1        0.0277
     23 H           5.9316    1.2076    0.0000 H       1  UNL1        0.0277
     24 H           7.6855   -1.7718    0.0000 H       1  UNL1        0.0271
     25 H           8.4837   -1.7810    0.0000 H       1  UNL1        0.0271
     26 H           5.4641    0.8527    0.0000 H       1  UNL1        0.0351
     27 H           4.8535   -0.6596    0.0000 H       1  UNL1        0.0271
     28 H           5.2520   -1.3499    0.0000 H       1  UNL1        0.0271
     29 H           9.2052   -1.3718    0.0000 H       1  UNL1        0.0268
     30 H           9.6070   -0.6820    0.0000 H       1  UNL1        0.0268
     31 H           6.5762   -1.7673    0.0000 H       1  UNL1        0.0235
     32 H           7.1962   -2.3873    0.0000 H       1  UNL1        0.0235
     33 H           7.8162   -1.7673    0.0000 H       1  UNL1        0.0235
     34 H           9.6070    0.1474    0.0000 H       1  UNL1        0.0310
     35 H           9.2052    0.8372    0.0000 H       1  UNL1        0.0310
     36 H           8.6118    2.0835    0.0000 H       1  UNL1        0.0534
     37 H           7.5380    2.0711    0.0000 H       1  UNL1        0.0534
     38 H           5.1350    2.0427    0.0000 H       1  UNL1        0.0540
     39 H           4.0611    2.0427    0.0000 H       1  UNL1        0.0540
     40 H           1.6900    0.7696    0.0000 H       1  UNL1        0.0661
     41 H           1.4631   -0.0773    0.0000 H       1  UNL1        0.0661
     42 H           2.3100   -0.3042    0.0000 H       1  UNL1        0.0661
@<TRIPOS>BOND
     1     1    16    1
     2     1    18    1
     3     2    16    2
     4     3     4    1
     5     3     5    1
     6     3     7    1
     7     3    12    1
     8     4     6    1
     9     4    10    1
    10     4    19    1
    11     5     9    1
    12     5    20    1
    13     5    21    1
    14     6     8    1
    15     6    22    1
    16     6    23    1
    17     7    11    1
    18     7    24    1
    19     7    25    1
    20     8     9    1
    21     8    14    1
    22     8    26    1
    23     9    27    1
    24     9    28    1
    25    10    13    1
    26    10    15    2
    27    11    13    1
    28    11    29    1
    29    11    30    1
    30    12    31    1
    31    12    32    1
    32    12    33    1
    33    13    34    1
    34    13    35    1
    35    14    16    1
    36    14    17    2
    37    15    36    1
    38    15    37    1
    39    17    38    1
    40    17    39    1
    41    18    40    1
    42    18    41    1
    43    18    42    1
