@<TRIPOS>MOLECULE
IMPHY016536
 30 29 0 0 0
SMALL
GASTEIGER

@<TRIPOS>ATOM
      1 S           4.5981    0.2500    0.0000 S.3     1  UNL1       -0.0779
      2 S           5.4641   -0.2500    0.0000 S.3     1  UNL1       -0.0779
      3 S           2.8660    0.2500    0.0000 S.3     1  UNL1       -0.1492
      4 S           7.1962   -0.2500    0.0000 S.3     1  UNL1       -0.1492
      5 C           3.7320   -0.2500    0.0000 C.3     1  UNL1        0.0606
      6 C           6.3301    0.2500    0.0000 C.3     1  UNL1        0.0606
      7 C           3.7320   -1.2500    0.0000 C.3     1  UNL1       -0.0340
      8 C           6.3301    1.2500    0.0000 C.3     1  UNL1       -0.0340
      9 C           2.8660   -1.7500    0.0000 C.3     1  UNL1       -0.0635
     10 C           7.1962    1.7500    0.0000 C.3     1  UNL1       -0.0635
     11 C           2.0000   -0.2500    0.0000 C.3     1  UNL1       -0.0170
     12 C           8.0622    0.2500    0.0000 C.3     1  UNL1       -0.0170
     13 H           4.2690   -0.5600    0.0000 H       1  UNL1        0.0533
     14 H           6.8671    0.5600    0.0000 H       1  UNL1        0.0533
     15 H           3.9441   -1.8326    0.0000 H       1  UNL1        0.0281
     16 H           4.3426   -1.1423    0.0000 H       1  UNL1        0.0281
     17 H           6.1181    1.8326    0.0000 H       1  UNL1        0.0281
     18 H           5.7196    1.1423    0.0000 H       1  UNL1        0.0281
     19 H           2.5560   -1.2131    0.0000 H       1  UNL1        0.0230
     20 H           2.3291   -2.0600    0.0000 H       1  UNL1        0.0230
     21 H           3.1760   -2.2869    0.0000 H       1  UNL1        0.0230
     22 H           7.5062    1.2131    0.0000 H       1  UNL1        0.0230
     23 H           7.7331    2.0600    0.0000 H       1  UNL1        0.0230
     24 H           6.8862    2.2869    0.0000 H       1  UNL1        0.0230
     25 H           1.6900    0.2869    0.0000 H       1  UNL1        0.0341
     26 H           1.4631   -0.5600    0.0000 H       1  UNL1        0.0341
     27 H           2.3100   -0.7869    0.0000 H       1  UNL1        0.0341
     28 H           8.3722   -0.2869    0.0000 H       1  UNL1        0.0341
     29 H           8.5991    0.5600    0.0000 H       1  UNL1        0.0341
     30 H           7.7522    0.7869    0.0000 H       1  UNL1        0.0341
@<TRIPOS>BOND
     1     1     2    1
     2     1     5    1
     3     2     6    1
     4     3     5    1
     5     3    11    1
     6     4     6    1
     7     4    12    1
     8     5     7    1
     9     5    13    1
    10     6     8    1
    11     6    14    1
    12     7     9    1
    13     7    15    1
    14     7    16    1
    15     8    10    1
    16     8    17    1
    17     8    18    1
    18     9    19    1
    19     9    20    1
    20     9    21    1
    21    10    22    1
    22    10    23    1
    23    10    24    1
    24    11    25    1
    25    11    26    1
    26    11    27    1
    27    12    28    1
    28    12    29    1
    29    12    30    1
