@<TRIPOS>MOLECULE
IMPHY000964
 55 61 0 0 0
SMALL
GASTEIGER

@<TRIPOS>ATOM
      1 O           8.5342   -2.0573    0.0000 O.3     1  UNL1       -0.3717
      2 O           5.2671   -2.0952    0.0000 O.2     1  UNL1       -0.2752
      3 O           2.8660    1.2152    0.0000 O.3     1  UNL1       -0.4914
      4 O           2.8660   -0.7090    0.0000 O.3     1  UNL1       -0.4914
      5 N           7.5417    2.0813    0.0000 N.3     1  UNL1       -0.2946
      6 N           6.1331   -0.6711    0.0000 N.am    1  UNL1       -0.2666
      7 C           6.9335    0.7152    0.0000 C.3     1  UNL1        0.0336
      8 C           6.9335   -0.2090    0.0000 C.3     1  UNL1        0.0479
      9 C           7.7339    1.1773    0.0000 C.3     1  UNL1        0.0227
     10 C           7.7339   -0.6711    0.0000 C.3     1  UNL1        0.0122
     11 C           8.5342   -0.2090    0.0000 C.3     1  UNL1       -0.0103
     12 C           8.5342    0.7152    0.0000 C.3     1  UNL1       -0.0295
     13 C           6.2467    1.3336    0.0000 C.3     1  UNL1       -0.0273
     14 C           5.3328    0.7152    0.0000 C.ar    1  UNL1       -0.0128
     15 C           6.6226    2.1779    0.0000 C.3     1  UNL1        0.0004
     16 C           7.7339   -1.5952    0.0000 C.3     1  UNL1        0.0724
     17 C           9.3945   -0.5466    0.0000 C.2     1  UNL1       -0.0538
     18 C           9.3587    1.2800    0.0000 C.3     1  UNL1        0.0207
     19 C           5.3328   -0.2090    0.0000 C.ar    1  UNL1        0.0441
     20 C           6.9335   -2.0573    0.0000 C.3     1  UNL1        0.0511
     21 C           6.1331   -1.5952    0.0000 C.2     1  UNL1        0.2225
     22 C           4.5324    1.1773    0.0000 C.ar    1  UNL1       -0.0107
     23 C           9.7078   -1.1845    0.0000 C.2     1  UNL1       -0.0579
     24 C           9.2560   -2.0471    0.0000 C.3     1  UNL1        0.0665
     25 C           4.5324   -0.6711    0.0000 C.ar    1  UNL1        0.0054
     26 C           3.7320    0.7152    0.0000 C.ar    1  UNL1        0.1619
     27 C           3.7320   -0.2090    0.0000 C.ar    1  UNL1        0.1633
     28 C           2.8660    2.2152    0.0000 C.3     1  UNL1        0.0790
     29 C           2.0000   -0.2090    0.0000 C.3     1  UNL1        0.0790
     30 H           6.9361   -1.0590    0.0000 H       1  UNL1        0.0517
     31 H           8.4763    1.5912    0.0000 H       1  UNL1        0.0472
     32 H           8.4700   -1.0961    0.0000 H       1  UNL1        0.0350
     33 H           9.2365    0.2699    0.0000 H       1  UNL1        0.0351
     34 H           9.1448    0.6076    0.0000 H       1  UNL1        0.0286
     35 H           8.7463    1.2978    0.0000 H       1  UNL1        0.0286
     36 H           5.7098    1.6436    0.0000 H       1  UNL1        0.0287
     37 H           5.8823    0.8320    0.0000 H       1  UNL1        0.0287
     38 H           6.7515    2.7843    0.0000 H       1  UNL1        0.0427
     39 H           6.0329    2.3695    0.0000 H       1  UNL1        0.0427
     40 H           7.7265   -2.4452    0.0000 H       1  UNL1        0.0604
     41 H           9.9738    1.2024    0.0000 H       1  UNL1        0.0473
     42 H           9.5243    1.8775    0.0000 H       1  UNL1        0.0473
     43 H           6.5350   -2.5323    0.0000 H       1  UNL1        0.0384
     44 H           7.3320   -2.5323    0.0000 H       1  UNL1        0.0384
     45 H           4.5324    1.7973    0.0000 H       1  UNL1        0.0659
     46 H          10.3278   -1.1925    0.0000 H       1  UNL1        0.0595
     47 H           9.1625   -2.6600    0.0000 H       1  UNL1        0.0604
     48 H           9.8451   -2.2403    0.0000 H       1  UNL1        0.0604
     49 H           4.5324   -1.2911    0.0000 H       1  UNL1        0.0674
     50 H           3.4860    2.2152    0.0000 H       1  UNL1        0.0660
     51 H           2.8660    2.8352    0.0000 H       1  UNL1        0.0660
     52 H           2.2460    2.2152    0.0000 H       1  UNL1        0.0660
     53 H           2.3100    0.3280    0.0000 H       1  UNL1        0.0660
     54 H           1.4631    0.1010    0.0000 H       1  UNL1        0.0660
     55 H           1.6900   -0.7459    0.0000 H       1  UNL1        0.0660
@<TRIPOS>BOND
     1     1    16    1
     2     1    24    1
     3     2    21    2
     4     3    26    1
     5     3    28    1
     6     4    27    1
     7     4    29    1
     8     5     9    1
     9     5    15    1
    10     5    18    1
    11     6     8    1
    12     6    19    1
    13     6    21   am
    14     7     8    1
    15     7     9    1
    16     7    13    1
    17     7    14    1
    18     8    10    1
    19     8    30    1
    20     9    12    1
    21     9    31    1
    22    10    11    1
    23    10    16    1
    24    10    32    1
    25    11    12    1
    26    11    17    1
    27    11    33    1
    28    12    34    1
    29    12    35    1
    30    13    15    1
    31    13    36    1
    32    13    37    1
    33    14    19   ar
    34    14    22   ar
    35    15    38    1
    36    15    39    1
    37    16    20    1
    38    16    40    1
    39    17    18    1
    40    17    23    2
    41    18    41    1
    42    18    42    1
    43    19    25   ar
    44    20    21    1
    45    20    43    1
    46    20    44    1
    47    22    26   ar
    48    22    45    1
    49    23    24    1
    50    23    46    1
    51    24    47    1
    52    24    48    1
    53    25    27   ar
    54    25    49    1
    55    26    27   ar
    56    28    50    1
    57    28    51    1
    58    28    52    1
    59    29    53    1
    60    29    54    1
    61    29    55    1
