@<TRIPOS>MOLECULE
IMPHY005675
 103 109 0 0 0
SMALL
GASTEIGER

@<TRIPOS>ATOM
      1 O           3.9782   -0.6234    0.0000 O.3     1  UNL1       -0.3377
      2 O           5.2667    1.8717    0.0000 O.3     1  UNL1       -0.3840
      3 O           2.3121   -2.0817    0.0000 O.3     1  UNL1       -0.3615
      4 O           3.7474    1.4796    0.0000 O.3     1  UNL1       -0.4610
      5 O           5.0435    2.6057    0.0000 O.3     1  UNL1       -0.4556
      6 O           3.1677   -3.8823    0.0000 O.3     1  UNL1       -0.4561
      7 O           6.7755    3.6057    0.0000 O.3     1  UNL1       -0.3876
      8 O           9.0254    3.5121    0.0000 O.3     1  UNL1       -0.3869
      9 O           2.1577    0.7921    0.0000 O.2     1  UNL1       -0.2512
     10 O           5.9095    4.1057    0.0000 O.2     1  UNL1       -0.2505
     11 O           4.5737   -4.8937    0.0000 O.2     1  UNL1       -0.2512
     12 N           9.4416    1.0849    0.0000 N.3     1  UNL1       -0.2961
     13 C           5.5776   -0.4692    0.0000 C.3     1  UNL1        0.0880
     14 C           4.9827   -1.3167    0.0000 C.3     1  UNL1        0.0056
     15 C           5.1725    0.4386    0.0000 C.3     1  UNL1        0.0584
     16 C           5.9095    1.1057    0.0000 C.3     1  UNL1        0.1172
     17 C           6.7755    0.6057    0.0000 C.3     1  UNL1       -0.0010
     18 C           3.9520   -1.2173    0.0000 C.3     1  UNL1        0.0280
     19 C           6.5663   -0.3662    0.0000 C.3     1  UNL1       -0.0167
     20 C           3.3121   -2.0855    0.0000 C.3     1  UNL1        0.2092
     21 C           4.1444    0.5618    0.0000 C.3     1  UNL1        0.1117
     22 C           7.6415    1.1057    0.0000 C.3     1  UNL1       -0.0146
     23 C           3.5300   -0.2717    0.0000 C.3     1  UNL1       -0.0068
     24 C           5.9095    2.1057    0.0000 C.3     1  UNL1        0.1583
     25 C           5.4449   -2.2912    0.0000 C.3     1  UNL1       -0.0410
     26 C           7.6415    2.1057    0.0000 C.3     1  UNL1        0.0230
     27 C           3.7516   -3.0705    0.0000 C.3     1  UNL1        0.1567
     28 C           6.7755    2.6057    0.0000 C.3     1  UNL1        0.1006
     29 C           5.9781   -1.4127    0.0000 C.3     1  UNL1       -0.0565
     30 C           4.8252   -3.1740    0.0000 C.3     1  UNL1       -0.0099
     31 C           8.5355    2.6403    0.0000 C.3     1  UNL1        0.0843
     32 C           8.5355    0.5710    0.0000 C.3     1  UNL1        0.0029
     33 C           9.4416    2.1265    0.0000 C.3     1  UNL1        0.0393
     34 C           8.0255    3.5005    0.0000 C.3     1  UNL1       -0.0342
     35 C          10.3727    2.6834    0.0000 C.3     1  UNL1       -0.0344
     36 C          10.3727    0.5279    0.0000 C.3     1  UNL1        0.0019
     37 C          11.3165    1.0632    0.0000 C.3     1  UNL1       -0.0310
     38 C          11.3165    2.1482    0.0000 C.3     1  UNL1       -0.0478
     39 C           2.7541    1.5948    0.0000 C.2     1  UNL1        0.3042
     40 C           5.0435    3.6057    0.0000 C.2     1  UNL1        0.3104
     41 C           3.5787   -4.7939    0.0000 C.2     1  UNL1        0.3044
     42 C          12.1806    0.5598    0.0000 C.3     1  UNL1       -0.0613
     43 C           4.1774    4.1057    0.0000 C.3     1  UNL1        0.0534
     44 C           2.3571    2.5126    0.0000 C.3     1  UNL1        0.0332
     45 C           2.9947   -5.6057    0.0000 C.3     1  UNL1        0.0332
     46 C           4.1774    5.1057    0.0000 C.3     1  UNL1       -0.0432
     47 C           3.3114    3.6057    0.0000 C.3     1  UNL1       -0.0523
     48 C           3.3114    5.6057    0.0000 C.3     1  UNL1       -0.0645
     49 H           4.8261    1.2148    0.0000 H       1  UNL1        0.0394
     50 H           7.4625    0.1052    0.0000 H       1  UNL1        0.0334
     51 H           3.3356   -1.1507    0.0000 H       1  UNL1        0.0361
     52 H           6.5654   -0.9862    0.0000 H       1  UNL1        0.0297
     53 H           7.1828   -0.4322    0.0000 H       1  UNL1        0.0297
     54 H           3.5284    0.6320    0.0000 H       1  UNL1        0.0738
     55 H           7.6350    0.2557    0.0000 H       1  UNL1        0.0321
     56 H           3.1012    0.1761    0.0000 H       1  UNL1        0.0305
     57 H           3.0154   -0.6176    0.0000 H       1  UNL1        0.0305
     58 H           5.9095    2.7257    0.0000 H       1  UNL1        0.0790
     59 H           5.8839   -2.7290    0.0000 H       1  UNL1        0.0273
     60 H           5.9513   -1.9336    0.0000 H       1  UNL1        0.0273
     61 H           7.6350    2.9556    0.0000 H       1  UNL1        0.0358
     62 H           3.1348   -3.0074    0.0000 H       1  UNL1        0.0788
     63 H           6.2386    2.9157    0.0000 H       1  UNL1        0.0635
     64 H           5.9185   -2.0298    0.0000 H       1  UNL1        0.0236
     65 H           6.5952   -1.4722    0.0000 H       1  UNL1        0.0236
     66 H           6.0376   -0.7956    0.0000 H       1  UNL1        0.0236
     67 H           4.6610   -3.7719    0.0000 H       1  UNL1        0.0303
     68 H           5.3861   -3.4381    0.0000 H       1  UNL1        0.0303
     69 H           8.1309    0.1012    0.0000 H       1  UNL1        0.0430
     70 H           8.9291    0.0920    0.0000 H       1  UNL1        0.0430
     71 H           4.6561    1.7640    0.0000 H       1  UNL1        0.2103
     72 H           9.4317    2.9764    0.0000 H       1  UNL1        0.0491
     73 H           2.0000   -2.6174    0.0000 H       1  UNL1        0.2129
     74 H           8.5588    3.8167    0.0000 H       1  UNL1        0.0258
     75 H           7.7093    4.0338    0.0000 H       1  UNL1        0.0258
     76 H           7.4922    3.1843    0.0000 H       1  UNL1        0.0258
     77 H          10.7663    3.1624    0.0000 H       1  UNL1        0.0281
     78 H           9.9681    3.1532    0.0000 H       1  UNL1        0.0281
     79 H           9.9681    0.0581    0.0000 H       1  UNL1        0.0429
     80 H          10.7663    0.0489    0.0000 H       1  UNL1        0.0429
     81 H           7.3124    3.9157    0.0000 H       1  UNL1        0.2100
     82 H           8.7093    4.0454    0.0000 H       1  UNL1        0.2102
     83 H          11.3129    0.4432    0.0000 H       1  UNL1        0.0310
     84 H          11.9274    2.0421    0.0000 H       1  UNL1        0.0269
     85 H          11.5255    2.7318    0.0000 H       1  UNL1        0.0269
     86 H          11.8685    0.0241    0.0000 H       1  UNL1        0.0233
     87 H          12.7163    0.2478    0.0000 H       1  UNL1        0.0233
     88 H          12.4927    1.0956    0.0000 H       1  UNL1        0.0233
     89 H           4.1774    3.4857    0.0000 H       1  UNL1        0.0410
     90 H           2.9262    2.7587    0.0000 H       1  UNL1        0.0342
     91 H           2.1110    3.0817    0.0000 H       1  UNL1        0.0342
     92 H           1.7881    2.2665    0.0000 H       1  UNL1        0.0342
     93 H           2.4914   -5.2436    0.0000 H       1  UNL1        0.0342
     94 H           2.6327   -6.1090    0.0000 H       1  UNL1        0.0342
     95 H           3.4980   -5.9677    0.0000 H       1  UNL1        0.0342
     96 H           4.7880    4.9980    0.0000 H       1  UNL1        0.0270
     97 H           4.3895    5.6883    0.0000 H       1  UNL1        0.0270
     98 H           3.0014    4.1426    0.0000 H       1  UNL1        0.0238
     99 H           2.7745    3.2957    0.0000 H       1  UNL1        0.0238
    100 H           3.6214    3.0687    0.0000 H       1  UNL1        0.0238
    101 H           3.6214    6.1426    0.0000 H       1  UNL1        0.0230
    102 H           2.7745    5.9157    0.0000 H       1  UNL1        0.0230
    103 H           3.0014    5.0687    0.0000 H       1  UNL1        0.0230
@<TRIPOS>BOND
     1     1    13    1
     2     1    20    1
     3     2    16    1
     4     2    71    1
     5    20     3    1
     6     3    73    1
     7    21     4    1
     8     4    39    1
     9    24     5    1
    10     5    40    1
    11    27     6    1
    12     6    41    1
    13    28     7    1
    14     7    81    1
    15    31     8    1
    16     8    82    1
    17     9    39    2
    18    10    40    2
    19    11    41    2
    20    12    32    1
    21    12    33    1
    22    12    36    1
    23    13    14    1
    24    13    15    1
    25    13    19    1
    26    14    18    1
    27    14    25    1
    28    14    29    1
    29    15    16    1
    30    15    21    1
    31    15    49    1
    32    16    17    1
    33    16    24    1
    34    17    19    1
    35    17    22    1
    36    17    50    1
    37    18    20    1
    38    18    23    1
    39    18    51    1
    40    19    52    1
    41    19    53    1
    42    20    27    1
    43    21    23    1
    44    21    54    1
    45    22    26    1
    46    22    32    1
    47    22    55    1
    48    23    56    1
    49    23    57    1
    50    24    28    1
    51    24    58    1
    52    25    30    1
    53    25    59    1
    54    25    60    1
    55    26    28    1
    56    26    31    1
    57    26    61    1
    58    27    30    1
    59    27    62    1
    60    28    63    1
    61    29    64    1
    62    29    65    1
    63    29    66    1
    64    30    67    1
    65    30    68    1
    66    31    33    1
    67    31    34    1
    68    32    69    1
    69    32    70    1
    70    33    35    1
    71    33    72    1
    72    34    74    1
    73    34    75    1
    74    34    76    1
    75    35    38    1
    76    35    77    1
    77    35    78    1
    78    36    37    1
    79    36    79    1
    80    36    80    1
    81    37    38    1
    82    37    42    1
    83    37    83    1
    84    38    84    1
    85    38    85    1
    86    39    44    1
    87    40    43    1
    88    41    45    1
    89    42    86    1
    90    42    87    1
    91    42    88    1
    92    43    46    1
    93    43    47    1
    94    43    89    1
    95    44    90    1
    96    44    91    1
    97    44    92    1
    98    45    93    1
    99    45    94    1
   100    45    95    1
   101    46    48    1
   102    46    96    1
   103    46    97    1
   104    47    98    1
   105    47    99    1
   106    47   100    1
   107    48   101    1
   108    48   102    1
   109    48   103    1
