@<TRIPOS>MOLECULE
IMPHY010331
 80 82 0 0 0
SMALL
GASTEIGER

@<TRIPOS>ATOM
      1 O          12.7505   -2.6946    0.0000 O.3     1  UNL1       -0.3915
      2 C          10.0985   -1.1495    0.0000 C.3     1  UNL1       -0.0078
      3 C           9.2325   -0.6495    0.0000 C.3     1  UNL1       -0.0288
      4 C           9.2325    0.3505    0.0000 C.3     1  UNL1       -0.0340
      5 C          10.9645   -0.6495    0.0000 C.2     1  UNL1       -0.0648
      6 C          10.0824   -2.1910    0.0000 C.3     1  UNL1       -0.0413
      7 C           8.6061   -1.3791    0.0000 C.3     1  UNL1       -0.0489
      8 C          10.0985    0.8505    0.0000 C.3     1  UNL1       -0.0314
      9 C           8.6061    1.0801    0.0000 C.3     1  UNL1       -0.0496
     10 C          11.8745   -1.1564    0.0000 C.3     1  UNL1       -0.0051
     11 C           9.2325   -1.6495    0.0000 C.3     1  UNL1       -0.0556
     12 C          10.9805   -2.7188    0.0000 C.3     1  UNL1       -0.0258
     13 C          10.9645    0.3505    0.0000 C.2     1  UNL1       -0.0839
     14 C           7.6578   -1.5384    0.0000 C.3     1  UNL1       -0.0496
     15 C          11.8825   -2.1980    0.0000 C.3     1  UNL1        0.0590
     16 C           6.8274   -1.0536    0.0000 C.3     1  UNL1       -0.0374
     17 C           7.6578    1.2394    0.0000 C.3     1  UNL1       -0.0522
     18 C           6.5000   -0.1495    0.0000 C.3     1  UNL1       -0.0176
     19 C           6.8274    0.7546    0.0000 C.3     1  UNL1       -0.0463
     20 C           6.0593   -1.6939    0.0000 C.3     1  UNL1       -0.0619
     21 C           5.5000   -0.1495    0.0000 C.2     1  UNL1       -0.0732
     22 C           5.0000    0.7165    0.0000 C.2     1  UNL1       -0.0845
     23 C           5.0000   -1.0155    0.0000 C.3     1  UNL1       -0.0435
     24 C           4.0000    0.7165    0.0000 C.3     1  UNL1       -0.0314
     25 C           3.5000    1.5825    0.0000 C.3     1  UNL1       -0.0355
     26 C           2.5000    1.5825    0.0000 C.3     1  UNL1       -0.0436
     27 C           4.0000    2.4486    0.0000 C.3     1  UNL1       -0.0525
     28 C           2.0000    2.4486    0.0000 C.3     1  UNL1       -0.0624
     29 C           2.0000    0.7165    0.0000 C.3     1  UNL1       -0.0624
     30 C           3.5000    3.3146    0.0000 C.3     1  UNL1       -0.0650
     31 H           9.9686   -0.2245    0.0000 H       1  UNL1        0.0312
     32 H           9.3753    1.1884    0.0000 H       1  UNL1        0.0307
     33 H           9.4733   -2.0755    0.0000 H       1  UNL1        0.0274
     34 H           9.8644   -2.7714    0.0000 H       1  UNL1        0.0274
     35 H           8.5285   -1.9942    0.0000 H       1  UNL1        0.0268
     36 H           9.1729   -1.6304    0.0000 H       1  UNL1        0.0268
     37 H          10.4970    1.3254    0.0000 H       1  UNL1        0.0310
     38 H           9.7000    1.3254    0.0000 H       1  UNL1        0.0310
     39 H           9.1729    1.3314    0.0000 H       1  UNL1        0.0268
     40 H           8.5285    1.6952    0.0000 H       1  UNL1        0.0268
     41 H          12.4862   -1.2577    0.0000 H       1  UNL1        0.0335
     42 H          12.0791   -0.5711    0.0000 H       1  UNL1        0.0335
     43 H           8.9225   -1.1126    0.0000 H       1  UNL1        0.0238
     44 H           8.6955   -1.9595    0.0000 H       1  UNL1        0.0238
     45 H           9.5425   -2.1864    0.0000 H       1  UNL1        0.0238
     46 H          10.5795   -3.1917    0.0000 H       1  UNL1        0.0290
     47 H          11.3778   -3.1947    0.0000 H       1  UNL1        0.0290
     48 H          11.5014    0.6605    0.0000 H       1  UNL1        0.0572
     49 H           7.2044   -1.9612    0.0000 H       1  UNL1        0.0268
     50 H           7.9322   -2.0944    0.0000 H       1  UNL1        0.0268
     51 H          11.8837   -2.8180    0.0000 H       1  UNL1        0.0596
     52 H           6.2289   -0.8917    0.0000 H       1  UNL1        0.0304
     53 H           7.9322    1.7954    0.0000 H       1  UNL1        0.0266
     54 H           7.2044    1.6622    0.0000 H       1  UNL1        0.0266
     55 H           6.1440    0.3581    0.0000 H       1  UNL1        0.0348
     56 H           6.6822    1.3574    0.0000 H       1  UNL1        0.0271
     57 H           6.2084    0.7890    0.0000 H       1  UNL1        0.0271
     58 H           5.6623   -1.2177    0.0000 H       1  UNL1        0.0233
     59 H           5.5831   -2.0909    0.0000 H       1  UNL1        0.0233
     60 H           6.4563   -2.1702    0.0000 H       1  UNL1        0.0233
     61 H          12.7529   -3.3146    0.0000 H       1  UNL1        0.2098
     62 H           5.3100    1.2535    0.0000 H       1  UNL1        0.0572
     63 H           4.4631   -0.7055    0.0000 H       1  UNL1        0.0274
     64 H           4.6900   -1.5525    0.0000 H       1  UNL1        0.0274
     65 H           5.5369   -1.3255    0.0000 H       1  UNL1        0.0274
     66 H           3.4174    0.5045    0.0000 H       1  UNL1        0.0310
     67 H           4.1077    0.1059    0.0000 H       1  UNL1        0.0310
     68 H           4.1200    1.5825    0.0000 H       1  UNL1        0.0306
     69 H           1.8800    1.5825    0.0000 H       1  UNL1        0.0298
     70 H           4.4750    2.0500    0.0000 H       1  UNL1        0.0265
     71 H           4.4750    2.8471    0.0000 H       1  UNL1        0.0265
     72 H           2.5369    2.7586    0.0000 H       1  UNL1        0.0232
     73 H           1.6900    2.9855    0.0000 H       1  UNL1        0.0232
     74 H           1.4631    2.1386    0.0000 H       1  UNL1        0.0232
     75 H           1.4631    1.0265    0.0000 H       1  UNL1        0.0232
     76 H           1.6900    0.1796    0.0000 H       1  UNL1        0.0232
     77 H           2.5369    0.4065    0.0000 H       1  UNL1        0.0232
     78 H           4.0369    3.6246    0.0000 H       1  UNL1        0.0230
     79 H           3.1900    3.8515    0.0000 H       1  UNL1        0.0230
     80 H           2.9631    3.0046    0.0000 H       1  UNL1        0.0230
@<TRIPOS>BOND
     1    15     1    1
     2     1    61    1
     3     2     3    1
     4     2     5    1
     5     2     6    1
     6     2    11    1
     7     3     4    1
     8     3     7    1
     9     3    31    1
    10     4     8    1
    11     4     9    1
    12     4    32    1
    13     5    10    1
    14     5    13    2
    15     6    12    1
    16     6    33    1
    17     6    34    1
    18     7    14    1
    19     7    35    1
    20     7    36    1
    21     8    13    1
    22     8    37    1
    23     8    38    1
    24     9    17    1
    25     9    39    1
    26     9    40    1
    27    10    15    1
    28    10    41    1
    29    10    42    1
    30    11    43    1
    31    11    44    1
    32    11    45    1
    33    12    15    1
    34    12    46    1
    35    12    47    1
    36    13    48    1
    37    14    16    1
    38    14    49    1
    39    14    50    1
    40    15    51    1
    41    16    18    1
    42    16    20    1
    43    16    52    1
    44    17    19    1
    45    17    53    1
    46    17    54    1
    47    18    19    1
    48    18    21    1
    49    18    55    1
    50    19    56    1
    51    19    57    1
    52    20    58    1
    53    20    59    1
    54    20    60    1
    55    21    22    2
    56    21    23    1
    57    22    24    1
    58    22    62    1
    59    23    63    1
    60    23    64    1
    61    23    65    1
    62    25    24    1
    63    24    66    1
    64    24    67    1
    65    25    26    1
    66    25    27    1
    67    25    68    1
    68    26    28    1
    69    26    29    1
    70    26    69    1
    71    27    30    1
    72    27    70    1
    73    27    71    1
    74    28    72    1
    75    28    73    1
    76    28    74    1
    77    29    75    1
    78    29    76    1
    79    29    77    1
    80    30    78    1
    81    30    79    1
    82    30    80    1
