@<TRIPOS>MOLECULE
IMPHY007887
 67 73 0 0 0
SMALL
GASTEIGER

@<TRIPOS>ATOM
      1 O           4.8811   -3.9697    0.0000 O.3     1  UNL1       -0.3365
      2 O           2.6598   -2.6425    0.0000 O.3     1  UNL1       -0.3812
      3 O           5.8517   -2.4752    0.0000 O.3     1  UNL1       -0.4601
      4 O           3.8642   -1.5903    0.0000 O.3     1  UNL1       -0.3826
      5 O           2.5369   -4.8116    0.0000 O.3     1  UNL1       -0.3920
      6 O           9.3437   -2.4405    0.0000 O.2     1  UNL1       -0.4214
      7 O           9.3437   -1.5098    0.0000 O.2     1  UNL1       -0.4189
      8 O           5.8517   -1.4752    0.0000 O.3     1  UNL1       -0.5060
      9 O          11.1138    0.5490    0.0000 O.3     1  UNL1       -0.4487
     10 O          11.1138   -2.4510    0.0000 O.2     1  UNL1       -0.2452
     11 O          11.1138   -1.4993    0.0000 O.2     1  UNL1       -0.2410
     12 O          12.8783    3.5626    0.0000 O.2     1  UNL1       -0.4220
     13 O          13.7483    5.1043    0.0000 O.2     1  UNL1       -0.2452
     14 C           3.4030   -3.3116    0.0000 C.3     1  UNL1        0.1436
     15 C           4.0721   -2.5684    0.0000 C.3     1  UNL1        0.1500
     16 C           4.9856   -2.9752    0.0000 C.3     1  UNL1        0.2309
     17 C           3.9030   -4.1776    0.0000 C.3     1  UNL1        0.0853
     18 C           2.5369   -3.8116    0.0000 C.3     1  UNL1        0.0778
     19 C           6.7177   -2.9752    0.0000 C.ar    1  UNL1        0.1355
     20 C           7.5837   -2.4752    0.0000 C.ar    1  UNL1        0.0738
     21 C           6.7177   -3.9752    0.0000 C.ar    1  UNL1       -0.0184
     22 C           7.5837   -1.4752    0.0000 C.ar    1  UNL1        0.0735
     23 C           8.4497   -2.9752    0.0000 C.ar    1  UNL1        0.1505
     24 C           8.4497   -3.9752    0.0000 C.ar    1  UNL1        0.0185
     25 C           7.5837   -4.4752    0.0000 C.ar    1  UNL1       -0.0476
     26 C           8.4497   -0.9752    0.0000 C.ar    1  UNL1        0.1507
     27 C           6.7177   -0.9752    0.0000 C.ar    1  UNL1        0.1283
     28 C           8.4497    0.0248    0.0000 C.ar    1  UNL1        0.0219
     29 C           9.3437   -4.5098    0.0000 C.ar    1  UNL1       -0.0443
     30 C           6.7177    0.0248    0.0000 C.ar    1  UNL1       -0.0188
     31 C           7.5837    0.5248    0.0000 C.ar    1  UNL1       -0.0475
     32 C           9.3437    0.5595    0.0000 C.ar    1  UNL1       -0.0015
     33 C          10.2497   -3.9960    0.0000 C.ar    1  UNL1        0.0236
     34 C          10.2497   -2.9544    0.0000 C.ar    1  UNL1        0.3372
     35 C          10.2497    0.0456    0.0000 C.ar    1  UNL1        0.2130
     36 C          10.2497   -0.9960    0.0000 C.ar    1  UNL1        0.3802
     37 C          11.1100    1.5490    0.0000 C.ar    1  UNL1        0.1323
     38 C          11.9741    2.0523    0.0000 C.ar    1  UNL1        0.0237
     39 C          11.9702    3.0523    0.0000 C.ar    1  UNL1        0.1425
     40 C          10.2420    2.0456    0.0000 C.ar    1  UNL1       -0.0185
     41 C          11.1023    3.5489    0.0000 C.ar    1  UNL1        0.0178
     42 C          10.2382    3.0456    0.0000 C.ar    1  UNL1       -0.0476
     43 C          11.0822    4.5904    0.0000 C.ar    1  UNL1       -0.0443
     44 C          11.9782    5.1216    0.0000 C.ar    1  UNL1        0.0236
     45 C          12.8823    4.6043    0.0000 C.ar    1  UNL1        0.3372
     46 H           3.4732   -2.4080    0.0000 H       1  UNL1        0.0687
     47 H           4.9532   -2.3560    0.0000 H       1  UNL1        0.1084
     48 H           3.3366   -4.4298    0.0000 H       1  UNL1        0.0591
     49 H           4.0946   -4.7673    0.0000 H       1  UNL1        0.0591
     50 H           2.3249   -3.2290    0.0000 H       1  UNL1        0.0587
     51 H           1.9264   -3.9192    0.0000 H       1  UNL1        0.0587
     52 H           2.0702   -2.8340    0.0000 H       1  UNL1        0.2105
     53 H           3.2745   -1.3987    0.0000 H       1  UNL1        0.2102
     54 H           2.0000   -5.1216    0.0000 H       1  UNL1        0.2095
     55 H           6.1808   -4.2852    0.0000 H       1  UNL1        0.0654
     56 H           7.5837   -5.0952    0.0000 H       1  UNL1        0.0626
     57 H           9.3365   -5.1298    0.0000 H       1  UNL1        0.0627
     58 H           6.1808    0.3348    0.0000 H       1  UNL1        0.0654
     59 H           7.5837    1.1448    0.0000 H       1  UNL1        0.0626
     60 H           9.3365    1.1794    0.0000 H       1  UNL1        0.0664
     61 H          10.7855   -4.3081    0.0000 H       1  UNL1        0.0689
     62 H           5.3147   -1.1652    0.0000 H       1  UNL1        0.2922
     63 H          12.5122    1.7444    0.0000 H       1  UNL1        0.0691
     64 H           9.7063    1.7336    0.0000 H       1  UNL1        0.0654
     65 H           9.7001    3.3535    0.0000 H       1  UNL1        0.0626
     66 H          10.5406    4.8921    0.0000 H       1  UNL1        0.0627
     67 H          11.9734    5.7416    0.0000 H       1  UNL1        0.0689
@<TRIPOS>BOND
     1     1    16    1
     2     1    17    1
     3    14     2    1
     4     2    52    1
     5    16     3    1
     6     3    19    1
     7    15     4    1
     8     4    53    1
     9     5    18    1
    10     5    54    1
    11     6    23   ar
    12     6    34   ar
    13     7    26   ar
    14     7    36   ar
    15     8    27    1
    16     8    62    1
    17     9    35    1
    18     9    37    1
    19    10    34    2
    20    11    36    2
    21    12    39   ar
    22    12    45   ar
    23    13    45    2
    24    14    15    1
    25    14    17    1
    26    14    18    1
    27    15    16    1
    28    15    46    1
    29    16    47    1
    30    17    48    1
    31    17    49    1
    32    18    50    1
    33    18    51    1
    34    19    20   ar
    35    19    21   ar
    36    20    22    1
    37    20    23   ar
    38    21    25   ar
    39    21    55    1
    40    22    26   ar
    41    22    27   ar
    42    23    24   ar
    43    24    25   ar
    44    24    29   ar
    45    25    56    1
    46    26    28   ar
    47    27    30   ar
    48    28    31   ar
    49    28    32   ar
    50    29    33   ar
    51    29    57    1
    52    30    31   ar
    53    30    58    1
    54    31    59    1
    55    32    35   ar
    56    32    60    1
    57    33    34   ar
    58    33    61    1
    59    35    36   ar
    60    37    38   ar
    61    37    40   ar
    62    38    39   ar
    63    38    63    1
    64    39    41   ar
    65    40    42   ar
    66    40    64    1
    67    41    42   ar
    68    41    43   ar
    69    42    65    1
    70    43    44   ar
    71    43    66    1
    72    44    45   ar
    73    44    67    1
