@<TRIPOS>MOLECULE
IMPHY004402
 36 39 0 0 0
SMALL
GASTEIGER

@<TRIPOS>ATOM
      1 O           7.9875   -0.5419    0.0000 O.3     1  UNL1       -0.4809
      2 O           7.0165    2.3042    0.0000 O.2     1  UNL1       -0.2956
      3 N           4.5124   -1.4586    0.0000 N.ar    1  UNL1       -0.3536
      4 C           8.3170   -1.5301    0.0000 C.3     1  UNL1        0.1235
      5 C           5.3181   -0.8763    0.0000 C.ar    1  UNL1        0.0583
      6 C           6.2962   -1.0842    0.0000 C.ar    1  UNL1        0.0411
      7 C           5.0091    0.0747    0.0000 C.ar    1  UNL1        0.0089
      8 C           6.9654   -0.3411    0.0000 C.ar    1  UNL1        0.1410
      9 C           4.0150    0.0721    0.0000 C.ar    1  UNL1        0.0074
     10 C           7.6200   -2.3042    0.0000 C.2     1  UNL1       -0.0408
     11 C           3.7086   -0.8736    0.0000 C.ar    1  UNL1        0.0475
     12 C           6.6028   -2.0797    0.0000 C.2     1  UNL1       -0.0493
     13 C           6.6564    0.6100    0.0000 C.ar    1  UNL1        0.0571
     14 C           5.6782    0.8179    0.0000 C.ar    1  UNL1       -0.0382
     15 C           9.0627   -2.1963    0.0000 C.3     1  UNL1       -0.0215
     16 C           9.2668   -1.2174    0.0000 C.3     1  UNL1       -0.0215
     17 C           3.3334    0.8516    0.0000 C.ar    1  UNL1       -0.0520
     18 C           2.6994   -1.1053    0.0000 C.ar    1  UNL1       -0.0378
     19 C           2.3191    0.6433    0.0000 C.ar    1  UNL1       -0.0611
     20 C           7.3255    1.3531    0.0000 C.2     1  UNL1        0.1537
     21 C           2.0000   -0.3418    0.0000 C.ar    1  UNL1       -0.0598
     22 H           7.8093   -2.8946    0.0000 H       1  UNL1        0.0611
     23 H           6.1826   -2.5357    0.0000 H       1  UNL1        0.0623
     24 H           4.5113   -2.0786    0.0000 H       1  UNL1        0.1659
     25 H           5.4866    1.4075    0.0000 H       1  UNL1        0.0632
     26 H           8.6496   -2.6587    0.0000 H       1  UNL1        0.0271
     27 H           9.5250   -2.6094    0.0000 H       1  UNL1        0.0271
     28 H           9.4607   -1.8063    0.0000 H       1  UNL1        0.0271
     29 H           9.8557   -1.0235    0.0000 H       1  UNL1        0.0271
     30 H           9.0730   -0.6285    0.0000 H       1  UNL1        0.0271
     31 H           9.4758   -1.7340    0.0000 H       1  UNL1        0.0271
     32 H           3.5313    1.4392    0.0000 H       1  UNL1        0.0624
     33 H           2.5152   -1.6973    0.0000 H       1  UNL1        0.0638
     34 H           1.9056    1.1053    0.0000 H       1  UNL1        0.0618
     35 H           7.9319    1.2242    0.0000 H       1  UNL1        0.1083
     36 H           1.3942   -0.4735    0.0000 H       1  UNL1        0.0618
@<TRIPOS>BOND
     1     1     4    1
     2     1     8    1
     3     2    20    2
     4     3     5   ar
     5     3    11   ar
     6     3    24    1
     7     4    10    1
     8     4    15    1
     9     4    16    1
    10     5     6   ar
    11     5     7   ar
    12     6     8   ar
    13     6    12    1
    14     7     9   ar
    15     7    14   ar
    16     8    13   ar
    17     9    11   ar
    18     9    17   ar
    19    10    12    2
    20    10    22    1
    21    11    18   ar
    22    12    23    1
    23    13    14   ar
    24    13    20    1
    25    14    25    1
    26    15    26    1
    27    15    27    1
    28    15    31    1
    29    16    28    1
    30    16    29    1
    31    16    30    1
    32    17    19   ar
    33    17    32    1
    34    18    21   ar
    35    18    33    1
    36    19    21   ar
    37    19    34    1
    38    20    35    1
    39    21    36    1
