@<TRIPOS>MOLECULE
IMPHY011138
 52 54 0 0 0
SMALL
GASTEIGER

@<TRIPOS>ATOM
      1 O           7.1949    1.7303    0.0000 O.3     1  UNL1       -0.3366
      2 O           4.2704   -0.0709    0.0000 O.3     1  UNL1       -0.4603
      3 O           8.9510    1.2277    0.0000 O.3     1  UNL1       -0.3593
      4 O           6.6576   -2.0987    0.0000 O.3     1  UNL1       -0.4532
      5 O           8.6417    2.6977    0.0000 O.3     1  UNL1       -0.3860
      6 O           5.3598   -3.3116    0.0000 O.2     1  UNL1       -0.2453
      7 O           3.9696    1.6348    0.0000 O.2     1  UNL1       -0.2505
      8 C           6.1949    1.7303    0.0000 C.3     1  UNL1        0.0763
      9 C           6.9152    2.4230    0.0000 C.3     1  UNL1        0.0078
     10 C           5.4288    1.0875    0.0000 C.3     1  UNL1        0.0142
     11 C           7.9609    1.0875    0.0000 C.3     1  UNL1        0.2173
     12 C           7.8544    2.0812    0.0000 C.3     1  UNL1        0.1156
     13 C           5.2552    0.1027    0.0000 C.3     1  UNL1        0.1163
     14 C           5.7552   -0.7633    0.0000 C.3     1  UNL1        0.0681
     15 C           6.6949   -1.1053    0.0000 C.3     1  UNL1        0.1323
     16 C           5.5265    2.4742    0.0000 C.3     1  UNL1       -0.0355
     17 C           8.1346    0.1027    0.0000 C.2     1  UNL1       -0.0124
     18 C           7.6346   -0.7633    0.0000 C.2     1  UNL1       -0.0392
     19 C           5.1452   -1.5482    0.0000 C.2     1  UNL1        0.0400
     20 C           9.1194   -0.0709    0.0000 C.3     1  UNL1       -0.0386
     21 C           5.7018   -2.3719    0.0000 C.2     1  UNL1        0.3357
     22 C           4.1458   -1.5151    0.0000 C.2     1  UNL1       -0.0882
     23 C           3.6276    0.6951    0.0000 C.2     1  UNL1        0.3099
     24 C           2.6428    0.5215    0.0000 C.3     1  UNL1        0.0508
     25 C           2.0000    1.2875    0.0000 C.3     1  UNL1       -0.0525
     26 C           2.3008   -0.4182    0.0000 C.3     1  UNL1       -0.0525
     27 H           7.2130    2.9668    0.0000 H       1  UNL1        0.0320
     28 H           6.4228    2.7997    0.0000 H       1  UNL1        0.0320
     29 H           5.1833    1.6568    0.0000 H       1  UNL1        0.0329
     30 H           4.8130    1.0155    0.0000 H       1  UNL1        0.0329
     31 H           7.7571    2.6935    0.0000 H       1  UNL1        0.0652
     32 H           4.8168    0.5411    0.0000 H       1  UNL1        0.0742
     33 H           4.9564   -0.4726    0.0000 H       1  UNL1        0.0427
     34 H           7.4936   -1.3960    0.0000 H       1  UNL1        0.0787
     35 H           5.9877    2.8885    0.0000 H       1  UNL1        0.0257
     36 H           5.1122    2.9353    0.0000 H       1  UNL1        0.0257
     37 H           5.0653    2.0598    0.0000 H       1  UNL1        0.0257
     38 H           8.0331   -1.2383    0.0000 H       1  UNL1        0.0610
     39 H           9.1827    1.8028    0.0000 H       1  UNL1        0.2132
     40 H           8.5548    3.3116    0.0000 H       1  UNL1        0.2100
     41 H           9.0117   -0.6815    0.0000 H       1  UNL1        0.0276
     42 H           9.7300   -0.1786    0.0000 H       1  UNL1        0.0276
     43 H           9.2270    0.5396    0.0000 H       1  UNL1        0.0276
     44 H           3.8537   -0.9682    0.0000 H       1  UNL1        0.0540
     45 H           3.8181   -2.0414    0.0000 H       1  UNL1        0.0540
     46 H           3.0413    0.0465    0.0000 H       1  UNL1        0.0408
     47 H           1.7182   -0.2062    0.0000 H       1  UNL1        0.0237
     48 H           2.0887   -1.0008    0.0000 H       1  UNL1        0.0237
     49 H           2.4750    1.6860    0.0000 H       1  UNL1        0.0237
     50 H           2.8834   -0.6303    0.0000 H       1  UNL1        0.0237
     51 H           1.6015    1.7624    0.0000 H       1  UNL1        0.0237
     52 H           1.5250    0.8890    0.0000 H       1  UNL1        0.0237
@<TRIPOS>BOND
     1     1     8    1
     2     1    11    1
     3    13     2    1
     4     2    23    1
     5    11     3    1
     6     3    39    1
     7     4    15    1
     8     4    21    1
     9    12     5    1
    10     5    40    1
    11     6    21    2
    12     7    23    2
    13     8     9    1
    14     8    10    1
    15     8    16    1
    16     9    12    1
    17     9    27    1
    18     9    28    1
    19    10    13    1
    20    10    29    1
    21    10    30    1
    22    11    12    1
    23    11    17    1
    24    12    31    1
    25    13    14    1
    26    13    32    1
    27    14    15    1
    28    14    19    1
    29    14    33    1
    30    15    18    1
    31    15    34    1
    32    16    35    1
    33    16    36    1
    34    16    37    1
    35    17    18    2
    36    17    20    1
    37    18    38    1
    38    19    21    1
    39    19    22    2
    40    20    41    1
    41    20    42    1
    42    20    43    1
    43    22    44    1
    44    22    45    1
    45    23    24    1
    46    24    25    1
    47    24    26    1
    48    24    46    1
    49    25    49    1
    50    25    51    1
    51    25    52    1
    52    26    47    1
    53    26    48    1
    54    26    50    1
