@<TRIPOS>MOLECULE
IMPHY013319
 53 54 0 0 0
SMALL
GASTEIGER

@<TRIPOS>ATOM
      1 O           4.5981    0.6900    0.0000 O.3     1  UNL1       -0.4792
      2 O           4.5981    2.6900    0.0000 O.3     1  UNL1       -0.3835
      3 O           6.3301   -0.3100    0.0000 O.3     1  UNL1       -0.4913
      4 O           2.8660   -0.3100    0.0000 O.3     1  UNL1       -0.4913
      5 O           8.9282    2.1900    0.0000 O.3     1  UNL1       -0.4914
      6 O           8.9282    4.1900    0.0000 O.3     1  UNL1       -0.5033
      7 C           5.4641    1.1900    0.0000 C.3     1  UNL1        0.1276
      8 C           5.4641    2.1900    0.0000 C.3     1  UNL1        0.1167
      9 C           6.3301    2.6900    0.0000 C.ar    1  UNL1       -0.0120
     10 C           6.3301    0.6900    0.0000 C.3     1  UNL1       -0.0250
     11 C           4.5981   -0.3100    0.0000 C.ar    1  UNL1        0.2041
     12 C           7.1962    2.1900    0.0000 C.ar    1  UNL1       -0.0106
     13 C           6.3301    3.6900    0.0000 C.ar    1  UNL1       -0.0523
     14 C           5.4641   -0.8100    0.0000 C.ar    1  UNL1        0.1655
     15 C           3.7320   -0.8100    0.0000 C.ar    1  UNL1        0.1655
     16 C           4.5981   -2.3100    0.0000 C.ar    1  UNL1       -0.0365
     17 C           5.4641   -1.8100    0.0000 C.ar    1  UNL1       -0.0126
     18 C           3.7320   -1.8100    0.0000 C.ar    1  UNL1       -0.0126
     19 C           8.0622    2.6900    0.0000 C.ar    1  UNL1        0.1616
     20 C           7.1962    4.1900    0.0000 C.ar    1  UNL1       -0.0162
     21 C           8.0622    3.6900    0.0000 C.ar    1  UNL1        0.1585
     22 C           4.5981   -3.3100    0.0000 C.3     1  UNL1       -0.0095
     23 C           3.7320   -3.8100    0.0000 C.2     1  UNL1       -0.0868
     24 C           7.1962   -0.8100    0.0000 C.3     1  UNL1        0.0790
     25 C           2.0000   -0.8100    0.0000 C.3     1  UNL1        0.0790
     26 C           9.7942    2.6900    0.0000 C.3     1  UNL1        0.0790
     27 C           3.7320   -4.8100    0.0000 C.2     1  UNL1       -0.1023
     28 H           4.9272    1.5000    0.0000 H       1  UNL1        0.0760
     29 H           5.4641    2.8100    0.0000 H       1  UNL1        0.0681
     30 H           6.0201    0.1531    0.0000 H       1  UNL1        0.0266
     31 H           6.8671    0.3800    0.0000 H       1  UNL1        0.0266
     32 H           6.6401    1.2269    0.0000 H       1  UNL1        0.0266
     33 H           7.1962    1.5700    0.0000 H       1  UNL1        0.0659
     34 H           5.7932    4.0000    0.0000 H       1  UNL1        0.0622
     35 H           4.5981    3.3100    0.0000 H       1  UNL1        0.2104
     36 H           6.0010   -2.1200    0.0000 H       1  UNL1        0.0658
     37 H           3.1951   -2.1200    0.0000 H       1  UNL1        0.0658
     38 H           7.1962    4.8100    0.0000 H       1  UNL1        0.0655
     39 H           4.8101   -3.8926    0.0000 H       1  UNL1        0.0355
     40 H           5.2087   -3.2023    0.0000 H       1  UNL1        0.0355
     41 H           3.1951   -3.5000    0.0000 H       1  UNL1        0.0570
     42 H           6.8862   -1.3469    0.0000 H       1  UNL1        0.0660
     43 H           7.7331   -1.1200    0.0000 H       1  UNL1        0.0660
     44 H           7.5062   -0.2731    0.0000 H       1  UNL1        0.0660
     45 H           1.6900   -0.2731    0.0000 H       1  UNL1        0.0660
     46 H           1.4631   -1.1200    0.0000 H       1  UNL1        0.0660
     47 H           2.3100   -1.3469    0.0000 H       1  UNL1        0.0660
     48 H           8.9282    4.8100    0.0000 H       1  UNL1        0.2923
     49 H          10.1042    2.1531    0.0000 H       1  UNL1        0.0660
     50 H          10.3312    3.0000    0.0000 H       1  UNL1        0.0660
     51 H           9.4842    3.2269    0.0000 H       1  UNL1        0.0660
     52 H           3.1951   -5.1200    0.0000 H       1  UNL1        0.0532
     53 H           4.2690   -5.1200    0.0000 H       1  UNL1        0.0532
@<TRIPOS>BOND
     1     7     1    1
     2     1    11    1
     3     8     2    1
     4     2    35    1
     5     3    14    1
     6     3    24    1
     7     4    15    1
     8     4    25    1
     9     5    19    1
    10     5    26    1
    11     6    21    1
    12     6    48    1
    13     7     8    1
    14     7    10    1
    15     7    28    1
    16     8     9    1
    17     8    29    1
    18     9    12   ar
    19     9    13   ar
    20    10    30    1
    21    10    31    1
    22    10    32    1
    23    11    14   ar
    24    11    15   ar
    25    12    19   ar
    26    12    33    1
    27    13    20   ar
    28    13    34    1
    29    14    17   ar
    30    15    18   ar
    31    16    17   ar
    32    16    18   ar
    33    16    22    1
    34    17    36    1
    35    18    37    1
    36    19    21   ar
    37    20    21   ar
    38    20    38    1
    39    22    23    1
    40    22    39    1
    41    22    40    1
    42    23    27    2
    43    23    41    1
    44    24    42    1
    45    24    43    1
    46    24    44    1
    47    25    45    1
    48    25    46    1
    49    25    47    1
    50    26    49    1
    51    26    50    1
    52    26    51    1
    53    27    52    1
    54    27    53    1
