@<TRIPOS>MOLECULE
IMPHY016883
 24 25 0 0 0
SMALL
GASTEIGER

@<TRIPOS>ATOM
      1 O           5.6137   -2.1590    0.0000 O.2     1  UNL1       -0.2971
      2 C           3.2369    1.1644    0.0000 C.3     1  UNL1       -0.0222
      3 C           3.9735    0.1818    0.0000 C.3     1  UNL1       -0.0286
      4 C           3.7147   -0.7841    0.0000 C.3     1  UNL1        0.0229
      5 C           2.0000   -0.4364    0.0000 C.3     1  UNL1       -0.0487
      6 C           2.3420   -1.3761    0.0000 C.3     1  UNL1       -0.0427
      7 C           5.3725   -0.3270    0.0000 C.3     1  UNL1        0.0095
      8 C           5.1137   -1.2929    0.0000 C.2     1  UNL1        0.1372
      9 C           3.3415    2.1590    0.0000 C.3     1  UNL1       -0.0589
     10 C           2.3234    1.5712    0.0000 C.3     1  UNL1       -0.0589
     11 H           3.9595   -0.4380    0.0000 H       1  UNL1        0.0310
     12 H           3.7328   -1.4038    0.0000 H       1  UNL1        0.0383
     13 H           1.8057    0.1523    0.0000 H       1  UNL1        0.0268
     14 H           1.4142   -0.6396    0.0000 H       1  UNL1        0.0268
     15 H           1.7636   -1.5994    0.0000 H       1  UNL1        0.0272
     16 H           2.5765   -1.9501    0.0000 H       1  UNL1        0.0272
     17 H           5.9664   -0.5048    0.0000 H       1  UNL1        0.0344
     18 H           5.5674    0.2616    0.0000 H       1  UNL1        0.0344
     19 H           3.9581    2.0942    0.0000 H       1  UNL1        0.0235
     20 H           3.4063    2.7756    0.0000 H       1  UNL1        0.0235
     21 H           2.7248    2.2238    0.0000 H       1  UNL1        0.0235
     22 H           2.5756    2.1376    0.0000 H       1  UNL1        0.0235
     23 H           1.7570    1.8233    0.0000 H       1  UNL1        0.0235
     24 H           2.0712    1.0048    0.0000 H       1  UNL1        0.0235
@<TRIPOS>BOND
     1     1     8    2
     2     2     3    1
     3     2     4    1
     4     2     9    1
     5     2    10    1
     6     3     5    1
     7     3     7    1
     8     3    11    1
     9     4     6    1
    10     4     8    1
    11     4    12    1
    12     5     6    1
    13     5    13    1
    14     5    14    1
    15     6    15    1
    16     6    16    1
    17     7     8    1
    18     7    17    1
    19     7    18    1
    20     9    19    1
    21     9    20    1
    22     9    21    1
    23    10    22    1
    24    10    23    1
    25    10    24    1
