@<TRIPOS>MOLECULE
IMPHY013555
 94 93 0 0 0
SMALL
GASTEIGER

@<TRIPOS>ATOM
      1 O           9.7942   -1.2500    0.0000 O.2     1  UNL1       -0.2974
      2 C          22.7846    0.2500    0.0000 C.3     1  UNL1       -0.0439
      3 C          21.9186   -0.2500    0.0000 C.3     1  UNL1       -0.0505
      4 C          21.0526    0.2500    0.0000 C.3     1  UNL1       -0.0528
      5 C          23.6506   -0.2500    0.0000 C.3     1  UNL1       -0.0505
      6 C          20.1865   -0.2500    0.0000 C.3     1  UNL1       -0.0530
      7 C          19.3205    0.2500    0.0000 C.3     1  UNL1       -0.0531
      8 C          18.4545   -0.2500    0.0000 C.3     1  UNL1       -0.0531
      9 C          17.5885    0.2500    0.0000 C.3     1  UNL1       -0.0531
     10 C          24.5167    0.2500    0.0000 C.3     1  UNL1       -0.0528
     11 C          16.7224   -0.2500    0.0000 C.3     1  UNL1       -0.0531
     12 C          22.7846    1.2500    0.0000 C.3     1  UNL1       -0.0624
     13 C          15.8564    0.2500    0.0000 C.3     1  UNL1       -0.0531
     14 C          14.9904   -0.2500    0.0000 C.3     1  UNL1       -0.0531
     15 C          14.1244    0.2500    0.0000 C.3     1  UNL1       -0.0531
     16 C          25.3827   -0.2500    0.0000 C.3     1  UNL1       -0.0533
     17 C          13.2583   -0.2500    0.0000 C.3     1  UNL1       -0.0530
     18 C          12.3923    0.2500    0.0000 C.3     1  UNL1       -0.0527
     19 C          11.5263   -0.2500    0.0000 C.3     1  UNL1       -0.0464
     20 C          26.2487    0.2500    0.0000 C.3     1  UNL1       -0.0559
     21 C          10.6603    0.2500    0.0000 C.3     1  UNL1        0.0058
     22 C           7.1962    0.2500    0.0000 C.3     1  UNL1       -0.0527
     23 C           8.0622   -0.2500    0.0000 C.3     1  UNL1       -0.0464
     24 C           6.3301   -0.2500    0.0000 C.3     1  UNL1       -0.0530
     25 C           8.9282    0.2500    0.0000 C.3     1  UNL1        0.0058
     26 C           5.4641    0.2500    0.0000 C.3     1  UNL1       -0.0531
     27 C           9.7942   -0.2500    0.0000 C.2     1  UNL1        0.1334
     28 C           4.5981   -0.2500    0.0000 C.3     1  UNL1       -0.0531
     29 C          27.1147   -0.2500    0.0000 C.3     1  UNL1       -0.0653
     30 C           3.7320    0.2500    0.0000 C.3     1  UNL1       -0.0533
     31 C           2.8660   -0.2500    0.0000 C.3     1  UNL1       -0.0559
     32 C           2.0000    0.2500    0.0000 C.3     1  UNL1       -0.0653
     33 H          22.2477    0.5600    0.0000 H       1  UNL1        0.0298
     34 H          21.5201   -0.7249    0.0000 H       1  UNL1        0.0268
     35 H          22.3171   -0.7249    0.0000 H       1  UNL1        0.0268
     36 H          21.4511    0.7249    0.0000 H       1  UNL1        0.0265
     37 H          20.6540    0.7249    0.0000 H       1  UNL1        0.0265
     38 H          23.2521   -0.7249    0.0000 H       1  UNL1        0.0268
     39 H          24.0492   -0.7249    0.0000 H       1  UNL1        0.0268
     40 H          19.7880   -0.7249    0.0000 H       1  UNL1        0.0265
     41 H          20.5851   -0.7249    0.0000 H       1  UNL1        0.0265
     42 H          19.7190    0.7249    0.0000 H       1  UNL1        0.0265
     43 H          18.9220    0.7249    0.0000 H       1  UNL1        0.0265
     44 H          18.0560   -0.7249    0.0000 H       1  UNL1        0.0265
     45 H          18.8530   -0.7249    0.0000 H       1  UNL1        0.0265
     46 H          17.9870    0.7249    0.0000 H       1  UNL1        0.0265
     47 H          17.1899    0.7249    0.0000 H       1  UNL1        0.0265
     48 H          24.9152    0.7249    0.0000 H       1  UNL1        0.0265
     49 H          24.1181    0.7249    0.0000 H       1  UNL1        0.0265
     50 H          16.3239   -0.7249    0.0000 H       1  UNL1        0.0265
     51 H          17.1210   -0.7249    0.0000 H       1  UNL1        0.0265
     52 H          23.4046    1.2500    0.0000 H       1  UNL1        0.0232
     53 H          22.7846    1.8700    0.0000 H       1  UNL1        0.0232
     54 H          22.1646    1.2500    0.0000 H       1  UNL1        0.0232
     55 H          16.2549    0.7249    0.0000 H       1  UNL1        0.0265
     56 H          15.4579    0.7249    0.0000 H       1  UNL1        0.0265
     57 H          14.5919   -0.7249    0.0000 H       1  UNL1        0.0265
     58 H          15.3889   -0.7249    0.0000 H       1  UNL1        0.0265
     59 H          14.5229    0.7249    0.0000 H       1  UNL1        0.0265
     60 H          13.7258    0.7249    0.0000 H       1  UNL1        0.0265
     61 H          24.9842   -0.7249    0.0000 H       1  UNL1        0.0265
     62 H          25.7812   -0.7249    0.0000 H       1  UNL1        0.0265
     63 H          12.8598   -0.7249    0.0000 H       1  UNL1        0.0265
     64 H          13.6569   -0.7249    0.0000 H       1  UNL1        0.0265
     65 H          12.7908    0.7249    0.0000 H       1  UNL1        0.0265
     66 H          11.9938    0.7249    0.0000 H       1  UNL1        0.0265
     67 H          11.1278   -0.7249    0.0000 H       1  UNL1        0.0269
     68 H          11.9248   -0.7249    0.0000 H       1  UNL1        0.0269
     69 H          26.6472    0.7249    0.0000 H       1  UNL1        0.0263
     70 H          25.8502    0.7249    0.0000 H       1  UNL1        0.0263
     71 H          11.0588    0.7249    0.0000 H       1  UNL1        0.0342
     72 H          10.2617    0.7249    0.0000 H       1  UNL1        0.0342
     73 H           7.5947    0.7249    0.0000 H       1  UNL1        0.0265
     74 H           6.7976    0.7249    0.0000 H       1  UNL1        0.0265
     75 H           7.6636   -0.7249    0.0000 H       1  UNL1        0.0269
     76 H           8.4607   -0.7249    0.0000 H       1  UNL1        0.0269
     77 H           5.9316   -0.7249    0.0000 H       1  UNL1        0.0265
     78 H           6.7287   -0.7249    0.0000 H       1  UNL1        0.0265
     79 H           9.3267    0.7249    0.0000 H       1  UNL1        0.0342
     80 H           8.5297    0.7249    0.0000 H       1  UNL1        0.0342
     81 H           5.8626    0.7249    0.0000 H       1  UNL1        0.0265
     82 H           5.0656    0.7249    0.0000 H       1  UNL1        0.0265
     83 H           4.1996   -0.7249    0.0000 H       1  UNL1        0.0265
     84 H           4.9966   -0.7249    0.0000 H       1  UNL1        0.0265
     85 H          26.8047   -0.7869    0.0000 H       1  UNL1        0.0230
     86 H          27.6517   -0.5600    0.0000 H       1  UNL1        0.0230
     87 H          27.4247    0.2869    0.0000 H       1  UNL1        0.0230
     88 H           4.1306    0.7249    0.0000 H       1  UNL1        0.0265
     89 H           3.3335    0.7249    0.0000 H       1  UNL1        0.0265
     90 H           2.4675   -0.7249    0.0000 H       1  UNL1        0.0263
     91 H           3.2646   -0.7249    0.0000 H       1  UNL1        0.0263
     92 H           2.3100    0.7869    0.0000 H       1  UNL1        0.0230
     93 H           1.4631    0.5600    0.0000 H       1  UNL1        0.0230
     94 H           1.6900   -0.2869    0.0000 H       1  UNL1        0.0230
@<TRIPOS>BOND
     1     1    27    2
     2     2     3    1
     3     2     5    1
     4     2    12    1
     5     2    33    1
     6     3     4    1
     7     3    34    1
     8     3    35    1
     9     4     6    1
    10     4    36    1
    11     4    37    1
    12     5    10    1
    13     5    38    1
    14     5    39    1
    15     6     7    1
    16     6    40    1
    17     6    41    1
    18     7     8    1
    19     7    42    1
    20     7    43    1
    21     8     9    1
    22     8    44    1
    23     8    45    1
    24     9    11    1
    25     9    46    1
    26     9    47    1
    27    10    16    1
    28    10    48    1
    29    10    49    1
    30    11    13    1
    31    11    50    1
    32    11    51    1
    33    12    52    1
    34    12    53    1
    35    12    54    1
    36    13    14    1
    37    13    55    1
    38    13    56    1
    39    14    15    1
    40    14    57    1
    41    14    58    1
    42    15    17    1
    43    15    59    1
    44    15    60    1
    45    16    20    1
    46    16    61    1
    47    16    62    1
    48    17    18    1
    49    17    63    1
    50    17    64    1
    51    18    19    1
    52    18    65    1
    53    18    66    1
    54    19    21    1
    55    19    67    1
    56    19    68    1
    57    20    29    1
    58    20    69    1
    59    20    70    1
    60    21    27    1
    61    21    71    1
    62    21    72    1
    63    22    23    1
    64    22    24    1
    65    22    73    1
    66    22    74    1
    67    23    25    1
    68    23    75    1
    69    23    76    1
    70    24    26    1
    71    24    77    1
    72    24    78    1
    73    25    27    1
    74    25    79    1
    75    25    80    1
    76    26    28    1
    77    26    81    1
    78    26    82    1
    79    28    30    1
    80    28    83    1
    81    28    84    1
    82    29    85    1
    83    29    86    1
    84    29    87    1
    85    30    31    1
    86    30    88    1
    87    30    89    1
    88    31    32    1
    89    31    90    1
    90    31    91    1
    91    32    92    1
    92    32    93    1
    93    32    94    1
