@<TRIPOS>MOLECULE
IMPHY009739
 24 25 0 0 0
SMALL
GASTEIGER

@<TRIPOS>ATOM
      1 O           2.2788   -1.8800    0.0000 O.2     1  UNL1       -0.2971
      2 C           3.5388    0.3800    0.0000 C.3     1  UNL1       -0.0164
      3 C           3.5388   -0.6200    0.0000 C.3     1  UNL1        0.0239
      4 C           4.4054   -0.1200    0.0000 C.3     1  UNL1       -0.0364
      5 C           2.5878    0.6891    0.0000 C.3     1  UNL1       -0.0398
      6 C           3.5388    1.3800    0.0000 C.3     1  UNL1       -0.0404
      7 C           2.5878   -0.9290    0.0000 C.2     1  UNL1        0.1370
      8 C           2.0000   -0.1200    0.0000 C.3     1  UNL1        0.0066
      9 C           4.4049    1.8800    0.0000 C.3     1  UNL1       -0.0621
     10 C           2.6728    1.8800    0.0000 C.3     1  UNL1       -0.0621
     11 H           3.7910   -1.1864    0.0000 H       1  UNL1        0.0383
     12 H           4.8039   -0.5949    0.0000 H       1  UNL1        0.0278
     13 H           4.8039    0.3550    0.0000 H       1  UNL1        0.0278
     14 H           2.8400    1.2554    0.0000 H       1  UNL1        0.0275
     15 H           2.0508    0.9991    0.0000 H       1  UNL1        0.0275
     16 H           3.5388    2.0000    0.0000 H       1  UNL1        0.0301
     17 H           1.5392    0.2949    0.0000 H       1  UNL1        0.0342
     18 H           1.5392   -0.5348    0.0000 H       1  UNL1        0.0342
     19 H           4.7149    1.3431    0.0000 H       1  UNL1        0.0233
     20 H           4.9418    2.1900    0.0000 H       1  UNL1        0.0233
     21 H           4.0949    2.4170    0.0000 H       1  UNL1        0.0233
     22 H           2.9828    2.4170    0.0000 H       1  UNL1        0.0233
     23 H           2.1359    2.1900    0.0000 H       1  UNL1        0.0233
     24 H           2.3628    1.3431    0.0000 H       1  UNL1        0.0233
@<TRIPOS>BOND
     1     1     7    2
     2     2     3    1
     3     2     4    1
     4     2     5    1
     5     2     6    1
     6     3     4    1
     7     3     7    1
     8     3    11    1
     9     4    12    1
    10     4    13    1
    11     5     8    1
    12     5    14    1
    13     5    15    1
    14     6     9    1
    15     6    10    1
    16     6    16    1
    17     7     8    1
    18     8    17    1
    19     8    18    1
    20     9    19    1
    21     9    20    1
    22     9    21    1
    23    10    22    1
    24    10    23    1
    25    10    24    1
