@<TRIPOS>MOLECULE
IMPHY001279
 78 81 0 0 0
SMALL
GASTEIGER

@<TRIPOS>ATOM
      1 O           5.0961    0.5925    0.0000 O.2     1  UNL1       -0.2755
      2 O          10.9924   -0.5925    0.0000 O.2     1  UNL1       -0.2755
      3 N           6.4788    1.5164    0.0000 N.am    1  UNL1       -0.3014
      4 N           9.6097   -1.5164    0.0000 N.am    1  UNL1       -0.3014
      5 N           5.4788    3.9306    0.0000 N.3     1  UNL1       -0.2979
      6 N          10.6097   -3.9306    0.0000 N.3     1  UNL1       -0.2979
      7 C           4.7716    3.2234    0.0000 C.3     1  UNL1        0.0436
      8 C          11.3168   -3.2234    0.0000 C.3     1  UNL1        0.0436
      9 C           6.8614    0.5925    0.0000 C.3     1  UNL1        0.0147
     10 C           9.2270   -0.5925    0.0000 C.3     1  UNL1        0.0147
     11 C           8.9026   -2.2234    0.0000 C.3     1  UNL1        0.0158
     12 C           7.1858    2.2234    0.0000 C.3     1  UNL1        0.0158
     13 C           7.8529    0.4619    0.0000 C.3     1  UNL1       -0.0357
     14 C           8.2356   -0.4619    0.0000 C.3     1  UNL1       -0.0357
     15 C           8.9026   -3.2234    0.0000 C.3     1  UNL1       -0.0243
     16 C           7.1858    3.2234    0.0000 C.3     1  UNL1       -0.0243
     17 C          11.3168   -2.2234    0.0000 C.3     1  UNL1        0.0438
     18 C           4.7716    2.2234    0.0000 C.3     1  UNL1        0.0438
     19 C           9.6097   -3.9306    0.0000 C.3     1  UNL1        0.0006
     20 C           6.4788    3.9306    0.0000 C.3     1  UNL1        0.0006
     21 C           5.4788    1.5164    0.0000 C.2     1  UNL1        0.2174
     22 C          10.6097   -1.5164    0.0000 C.2     1  UNL1        0.2174
     23 C          12.2407   -3.6061    0.0000 C.ar    1  UNL1       -0.0298
     24 C           3.8478    3.6061    0.0000 C.ar    1  UNL1       -0.0298
     25 C          10.9924   -4.8544    0.0000 C.3     1  UNL1       -0.0122
     26 C           5.0961    4.8544    0.0000 C.3     1  UNL1       -0.0122
     27 C           3.7172    4.5976    0.0000 C.ar    1  UNL1       -0.0571
     28 C          12.3712   -4.5976    0.0000 C.ar    1  UNL1       -0.0571
     29 C           3.0544    2.9974    0.0000 C.ar    1  UNL1       -0.0571
     30 C          13.0340   -2.9974    0.0000 C.ar    1  UNL1       -0.0571
     31 C          13.2951   -4.9803    0.0000 C.ar    1  UNL1       -0.0615
     32 C           2.7934    4.9803    0.0000 C.ar    1  UNL1       -0.0615
     33 C          13.9579   -3.3801    0.0000 C.ar    1  UNL1       -0.0615
     34 C           2.1305    3.3801    0.0000 C.ar    1  UNL1       -0.0615
     35 C           2.0000    4.3715    0.0000 C.ar    1  UNL1       -0.0617
     36 C          14.0884   -4.3715    0.0000 C.ar    1  UNL1       -0.0617
     37 H           4.6507    3.8315    0.0000 H       1  UNL1        0.0517
     38 H          11.4377   -3.8315    0.0000 H       1  UNL1        0.0517
     39 H           6.2561    0.4583    0.0000 H       1  UNL1        0.0464
     40 H           6.8885   -0.0269    0.0000 H       1  UNL1        0.0464
     41 H           9.8323   -0.4583    0.0000 H       1  UNL1        0.0464
     42 H           9.2000    0.0269    0.0000 H       1  UNL1        0.0464
     43 H           7.4958    1.6865    0.0000 H       1  UNL1        0.0465
     44 H           7.7847    2.3839    0.0000 H       1  UNL1        0.0465
     45 H           8.5926   -1.6865    0.0000 H       1  UNL1        0.0465
     46 H           8.3037   -2.3839    0.0000 H       1  UNL1        0.0465
     47 H           8.4582    0.5961    0.0000 H       1  UNL1        0.0281
     48 H           7.8258    1.0814    0.0000 H       1  UNL1        0.0281
     49 H           7.6302   -0.5961    0.0000 H       1  UNL1        0.0281
     50 H           8.2626   -1.0814    0.0000 H       1  UNL1        0.0281
     51 H           7.7847    3.0630    0.0000 H       1  UNL1        0.0293
     52 H           7.4958    3.7604    0.0000 H       1  UNL1        0.0293
     53 H           8.3037   -3.0630    0.0000 H       1  UNL1        0.0293
     54 H           8.5926   -3.7604    0.0000 H       1  UNL1        0.0293
     55 H          11.9157   -2.3839    0.0000 H       1  UNL1        0.0377
     56 H          11.6268   -1.6865    0.0000 H       1  UNL1        0.0377
     57 H           4.1728    2.3839    0.0000 H       1  UNL1        0.0377
     58 H           4.4616    1.6865    0.0000 H       1  UNL1        0.0377
     59 H           9.0727   -4.2406    0.0000 H       1  UNL1        0.0427
     60 H           9.7701   -4.5294    0.0000 H       1  UNL1        0.0427
     61 H           7.0157    4.2406    0.0000 H       1  UNL1        0.0427
     62 H           6.3183    4.5294    0.0000 H       1  UNL1        0.0427
     63 H          10.4196   -5.0917    0.0000 H       1  UNL1        0.0391
     64 H          11.2296   -5.4272    0.0000 H       1  UNL1        0.0391
     65 H          11.5652   -4.6172    0.0000 H       1  UNL1        0.0391
     66 H           5.6689    5.0917    0.0000 H       1  UNL1        0.0391
     67 H           4.8588    5.4272    0.0000 H       1  UNL1        0.0391
     68 H           4.5233    4.6172    0.0000 H       1  UNL1        0.0391
     69 H           4.2091    4.9750    0.0000 H       1  UNL1        0.0621
     70 H          11.8793   -4.9750    0.0000 H       1  UNL1        0.0621
     71 H           3.1353    2.3827    0.0000 H       1  UNL1        0.0621
     72 H          12.9531   -2.3827    0.0000 H       1  UNL1        0.0621
     73 H          13.3760   -5.5950    0.0000 H       1  UNL1        0.0618
     74 H           2.7124    5.5950    0.0000 H       1  UNL1        0.0618
     75 H          14.4498   -3.0026    0.0000 H       1  UNL1        0.0618
     76 H           1.6386    3.0026    0.0000 H       1  UNL1        0.0618
     77 H          14.6612   -4.6088    0.0000 H       1  UNL1        0.0618
     78 H           1.4272    4.6088    0.0000 H       1  UNL1        0.0618
@<TRIPOS>BOND
     1     1    21    2
     2     2    22    2
     3     3     9    1
     4     3    12    1
     5     3    21   am
     6     4    10    1
     7     4    11    1
     8     4    22   am
     9     5     7    1
    10     5    20    1
    11     5    26    1
    12     6     8    1
    13     6    19    1
    14     6    25    1
    15     7    18    1
    16     7    24    1
    17     7    37    1
    18     8    17    1
    19     8    23    1
    20     8    38    1
    21     9    13    1
    22     9    39    1
    23     9    40    1
    24    10    14    1
    25    10    41    1
    26    10    42    1
    27    11    15    1
    28    11    45    1
    29    11    46    1
    30    12    16    1
    31    12    43    1
    32    12    44    1
    33    13    14    1
    34    13    47    1
    35    13    48    1
    36    14    49    1
    37    14    50    1
    38    15    19    1
    39    15    53    1
    40    15    54    1
    41    16    20    1
    42    16    51    1
    43    16    52    1
    44    17    22    1
    45    17    55    1
    46    17    56    1
    47    18    21    1
    48    18    57    1
    49    18    58    1
    50    19    59    1
    51    19    60    1
    52    20    61    1
    53    20    62    1
    54    23    28   ar
    55    23    30   ar
    56    24    27   ar
    57    24    29   ar
    58    25    63    1
    59    25    64    1
    60    25    65    1
    61    26    66    1
    62    26    67    1
    63    26    68    1
    64    27    32   ar
    65    27    69    1
    66    28    31   ar
    67    28    70    1
    68    29    34   ar
    69    29    71    1
    70    30    33   ar
    71    30    72    1
    72    31    36   ar
    73    31    73    1
    74    32    35   ar
    75    32    74    1
    76    33    36   ar
    77    33    75    1
    78    34    35   ar
    79    34    76    1
    80    35    78    1
    81    36    77    1
