@<TRIPOS>MOLECULE
IMPHY007650
 65 66 0 0 0
SMALL
GASTEIGER

@<TRIPOS>ATOM
      1 O           6.9653    2.3238    0.0000 O.2     1  UNL1       -0.5097
      2 O           5.6797    1.8559    0.0000 O.2     1  UNL1       -0.5097
      3 O           8.6973   -0.6762    0.0000 O.2     1  UNL1       -0.5056
      4 O           6.2812   -1.5556    0.0000 O.2     1  UNL1       -0.5056
      5 O          10.4294    2.3238    0.0000 O.2     1  UNL1       -0.2908
      6 O           3.0261   -0.3708    0.0000 O.2     1  UNL1       -0.2908
      7 O          10.4294   -0.6762    0.0000 O.2     1  UNL1       -0.2918
      8 O           4.9544   -2.6689    0.0000 O.2     1  UNL1       -0.2918
      9 C           8.6973    2.3238    0.0000 C.3     1  UNL1        0.0853
     10 C           4.3529    0.7426    0.0000 C.3     1  UNL1        0.0853
     11 C           6.9653    0.3238    0.0000 C.3     1  UNL1        0.0109
     12 C           7.8313    0.8238    0.0000 C.2     1  UNL1        0.0374
     13 C           5.9805    0.1502    0.0000 C.2     1  UNL1        0.0374
     14 C           7.8313    1.8238    0.0000 C.2     1  UNL1        0.1141
     15 C           5.3377    0.9162    0.0000 C.2     1  UNL1        0.1141
     16 C           9.5634    1.8238    0.0000 C.2     1  UNL1        0.1828
     17 C           4.0109   -0.1971    0.0000 C.2     1  UNL1        0.1828
     18 C           9.5634    0.8238    0.0000 C.2     1  UNL1        0.1024
     19 C           4.6537   -0.9632    0.0000 C.2     1  UNL1        0.1024
     20 C           8.6973    0.3238    0.0000 C.2     1  UNL1        0.1374
     21 C           5.6384   -0.7894    0.0000 C.2     1  UNL1        0.1374
     22 C           9.1973    3.1898    0.0000 C.3     1  UNL1       -0.0458
     23 C           8.1973    3.1898    0.0000 C.3     1  UNL1       -0.0458
     24 C           3.4132    1.0846    0.0000 C.3     1  UNL1       -0.0458
     25 C           4.1792    1.7274    0.0000 C.3     1  UNL1       -0.0458
     26 C          10.4294    0.3238    0.0000 C.2     1  UNL1        0.1701
     27 C           4.3116   -1.9028    0.0000 C.2     1  UNL1        0.1701
     28 C          11.2954    0.8238    0.0000 C.3     1  UNL1        0.0105
     29 C           3.3268   -2.0765    0.0000 C.3     1  UNL1        0.0105
     30 C          12.1614    0.3238    0.0000 C.3     1  UNL1       -0.0489
     31 C           2.9847   -3.0161    0.0000 C.3     1  UNL1       -0.0489
     32 C          13.0275    0.8238    0.0000 C.3     1  UNL1       -0.0649
     33 C           2.0000   -3.1898    0.0000 C.3     1  UNL1       -0.0649
     34 H           6.8223   -0.2795    0.0000 H       1  UNL1        0.0366
     35 H           6.7532    0.9064    0.0000 H       1  UNL1        0.0366
     36 H           9.7343    2.8798    0.0000 H       1  UNL1        0.0243
     37 H           9.5073    3.7268    0.0000 H       1  UNL1        0.0243
     38 H           8.6604    3.4998    0.0000 H       1  UNL1        0.0243
     39 H           8.7343    3.4998    0.0000 H       1  UNL1        0.0243
     40 H           7.8873    3.7268    0.0000 H       1  UNL1        0.0243
     41 H           7.6604    2.8798    0.0000 H       1  UNL1        0.0243
     42 H           4.7898    1.8350    0.0000 H       1  UNL1        0.0243
     43 H           4.0716    2.3380    0.0000 H       1  UNL1        0.0243
     44 H           3.5687    1.6197    0.0000 H       1  UNL1        0.0243
     45 H           3.6252    1.6672    0.0000 H       1  UNL1        0.0243
     46 H           2.8306    1.2966    0.0000 H       1  UNL1        0.0243
     47 H           3.2011    0.5020    0.0000 H       1  UNL1        0.0243
     48 H           5.2812    2.3309    0.0000 H       1  UNL1        0.2917
     49 H           6.4284    2.0138    0.0000 H       1  UNL1        0.2917
     50 H           3.3268   -1.4565    0.0000 H       1  UNL1        0.0345
     51 H           2.7162   -1.9688    0.0000 H       1  UNL1        0.0345
     52 H          11.6939    1.2988    0.0000 H       1  UNL1        0.0345
     53 H          10.8969    1.2988    0.0000 H       1  UNL1        0.0345
     54 H           9.2343   -0.9862    0.0000 H       1  UNL1        0.2922
     55 H           6.0692   -2.1382    0.0000 H       1  UNL1        0.2922
     56 H           2.9848   -3.6361    0.0000 H       1  UNL1        0.0267
     57 H           3.5953   -3.1238    0.0000 H       1  UNL1        0.0267
     58 H          11.7629   -0.1511    0.0000 H       1  UNL1        0.0267
     59 H          12.5600   -0.1511    0.0000 H       1  UNL1        0.0267
     60 H           1.8923   -2.5793    0.0000 H       1  UNL1        0.0230
     61 H           1.3894   -3.2976    0.0000 H       1  UNL1        0.0230
     62 H           2.1077   -3.8004    0.0000 H       1  UNL1        0.0230
     63 H          13.3375    0.2869    0.0000 H       1  UNL1        0.0230
     64 H          13.5644    1.1338    0.0000 H       1  UNL1        0.0230
     65 H          12.7175    1.3608    0.0000 H       1  UNL1        0.0230
@<TRIPOS>BOND
     1     1    14    1
     2     1    49    1
     3     2    15    1
     4     2    48    1
     5     3    20    1
     6     3    54    1
     7     4    21    1
     8     4    55    1
     9     5    16    2
    10     6    17    2
    11     7    26    2
    12     8    27    2
    13     9    14    1
    14     9    16    1
    15     9    22    1
    16     9    23    1
    17    10    15    1
    18    10    17    1
    19    10    24    1
    20    10    25    1
    21    11    12    1
    22    11    13    1
    23    11    34    1
    24    11    35    1
    25    12    14    2
    26    12    20    1
    27    13    15    2
    28    13    21    1
    29    16    18    1
    30    17    19    1
    31    18    20    2
    32    18    26    1
    33    19    21    2
    34    19    27    1
    35    22    36    1
    36    22    37    1
    37    22    38    1
    38    23    39    1
    39    23    40    1
    40    23    41    1
    41    24    45    1
    42    24    46    1
    43    24    47    1
    44    25    42    1
    45    25    43    1
    46    25    44    1
    47    26    28    1
    48    27    29    1
    49    28    30    1
    50    28    52    1
    51    28    53    1
    52    29    31    1
    53    29    50    1
    54    29    51    1
    55    30    32    1
    56    30    58    1
    57    30    59    1
    58    31    33    1
    59    31    56    1
    60    31    57    1
    61    32    63    1
    62    32    64    1
    63    32    65    1
    64    33    60    1
    65    33    61    1
    66    33    62    1
