@<TRIPOS>MOLECULE
IMPHY003953
 83 87 0 0 0
SMALL
GASTEIGER

@<TRIPOS>ATOM
      1 O           2.5381   -3.2456    0.0000 O.3     1  UNL1       -0.3912
      2 C           6.0682   -1.2214    0.0000 C.3     1  UNL1       -0.0194
      3 C           5.2022   -1.7214    0.0000 C.3     1  UNL1       -0.0193
      4 C           5.2020   -0.7210    0.0000 C.3     1  UNL1       -0.0401
      5 C           6.9343   -1.7214    0.0000 C.3     1  UNL1       -0.0289
      6 C           5.2022   -2.7214    0.0000 C.3     1  UNL1       -0.0273
      7 C           7.8443   -1.2146    0.0000 C.3     1  UNL1       -0.0231
      8 C           6.0522   -0.1799    0.0000 C.3     1  UNL1       -0.0460
      9 C           7.8523   -0.1730    0.0000 C.3     1  UNL1       -0.0233
     10 C           4.3083   -1.1868    0.0000 C.3     1  UNL1       -0.0442
     11 C           6.9343   -2.7214    0.0000 C.3     1  UNL1       -0.0489
     12 C           6.0682   -3.2214    0.0000 C.3     1  UNL1       -0.0488
     13 C           6.9502    0.3478    0.0000 C.3     1  UNL1       -0.0463
     14 C           4.3083   -3.2561    0.0000 C.3     1  UNL1       -0.0056
     15 C           8.8403    0.1368    0.0000 C.3     1  UNL1       -0.0325
     16 C           8.8274   -1.5396    0.0000 C.3     1  UNL1       -0.0466
     17 C           3.4022   -1.7006    0.0000 C.3     1  UNL1       -0.0258
     18 C           3.4022   -2.7423    0.0000 C.3     1  UNL1        0.0606
     19 C           9.4418   -0.7061    0.0000 C.3     1  UNL1       -0.0489
     20 C           7.8366   -2.2146    0.0000 C.3     1  UNL1       -0.0588
     21 C           7.8600    0.8270    0.0000 C.3     1  UNL1       -0.0588
     22 C           9.1583    1.0849    0.0000 C.3     1  UNL1       -0.0405
     23 C           3.8183   -4.1279    0.0000 C.3     1  UNL1       -0.0572
     24 C           4.8183   -4.1163    0.0000 C.3     1  UNL1       -0.0572
     25 C          10.1384    1.2836    0.0000 C.3     1  UNL1       -0.0502
     26 C           8.4962    1.8343    0.0000 C.3     1  UNL1       -0.0621
     27 C          10.4564    2.2317    0.0000 C.3     1  UNL1       -0.0526
     28 C          11.4364    2.4303    0.0000 C.3     1  UNL1       -0.0507
     29 C          11.7544    3.3784    0.0000 C.3     1  UNL1       -0.0467
     30 C          12.7345    3.5771    0.0000 C.3     1  UNL1       -0.0627
     31 C          11.0923    4.1279    0.0000 C.3     1  UNL1       -0.0627
     32 H           5.4141   -0.1384    0.0000 H       1  UNL1        0.0276
     33 H           4.5914   -0.6134    0.0000 H       1  UNL1        0.0276
     34 H           7.6671   -2.1521    0.0000 H       1  UNL1        0.0312
     35 H           5.2088   -3.5714    0.0000 H       1  UNL1        0.0312
     36 H           5.8342    0.4005    0.0000 H       1  UNL1        0.0271
     37 H           5.4431   -0.2954    0.0000 H       1  UNL1        0.0271
     38 H           4.7129   -0.7170    0.0000 H       1  UNL1        0.0272
     39 H           3.9147   -0.7078    0.0000 H       1  UNL1        0.0272
     40 H           7.1463   -3.3041    0.0000 H       1  UNL1        0.0268
     41 H           7.5449   -2.6138    0.0000 H       1  UNL1        0.0268
     42 H           5.6697   -3.6964    0.0000 H       1  UNL1        0.0268
     43 H           6.4668   -3.6964    0.0000 H       1  UNL1        0.0268
     44 H           7.3475    0.8238    0.0000 H       1  UNL1        0.0271
     45 H           6.5493    0.8207    0.0000 H       1  UNL1        0.0271
     46 H           9.6810    0.2622    0.0000 H       1  UNL1        0.0309
     47 H           8.5720   -2.1046    0.0000 H       1  UNL1        0.0271
     48 H           9.3624   -1.8530    0.0000 H       1  UNL1        0.0271
     49 H           3.1932   -1.1170    0.0000 H       1  UNL1        0.0290
     50 H           2.7914   -1.8067    0.0000 H       1  UNL1        0.0290
     51 H           2.8647   -2.4333    0.0000 H       1  UNL1        0.0599
     52 H           9.8994   -1.1244    0.0000 H       1  UNL1        0.0268
     53 H           9.9058   -0.2949    0.0000 H       1  UNL1        0.0268
     54 H           7.2166   -2.2098    0.0000 H       1  UNL1        0.0235
     55 H           7.8318   -2.8346    0.0000 H       1  UNL1        0.0235
     56 H           8.4566   -2.2194    0.0000 H       1  UNL1        0.0235
     57 H           8.4800    0.8222    0.0000 H       1  UNL1        0.0235
     58 H           7.8648    1.4470    0.0000 H       1  UNL1        0.0235
     59 H           7.2400    0.8317    0.0000 H       1  UNL1        0.0235
     60 H           9.3555    1.6727    0.0000 H       1  UNL1        0.0301
     61 H           3.2778   -3.8241    0.0000 H       1  UNL1        0.0236
     62 H           4.2850   -4.4325    0.0000 H       1  UNL1        0.0236
     63 H           5.1344   -4.6496    0.0000 H       1  UNL1        0.0236
     64 H           5.3516   -3.8001    0.0000 H       1  UNL1        0.0236
     65 H           3.5146   -4.6684    0.0000 H       1  UNL1        0.0236
     66 H           4.3588   -4.4316    0.0000 H       1  UNL1        0.0236
     67 H           2.0000   -2.9377    0.0000 H       1  UNL1        0.2098
     68 H          10.1542    0.6638    0.0000 H       1  UNL1        0.0268
     69 H          10.7515    1.1915    0.0000 H       1  UNL1        0.0268
     70 H           8.9609    2.2448    0.0000 H       1  UNL1        0.0233
     71 H           8.0857    2.2990    0.0000 H       1  UNL1        0.0233
     72 H           8.0316    1.4238    0.0000 H       1  UNL1        0.0233
     73 H          10.4406    2.8515    0.0000 H       1  UNL1        0.0265
     74 H           9.8432    2.3238    0.0000 H       1  UNL1        0.0265
     75 H          11.4522    1.8105    0.0000 H       1  UNL1        0.0268
     76 H          12.0496    2.3383    0.0000 H       1  UNL1        0.0268
     77 H          11.9516    3.9663    0.0000 H       1  UNL1        0.0295
     78 H          12.8577    2.9695    0.0000 H       1  UNL1        0.0232
     79 H          13.3421    3.7003    0.0000 H       1  UNL1        0.0232
     80 H          12.6113    4.1848    0.0000 H       1  UNL1        0.0232
     81 H          11.5570    4.5384    0.0000 H       1  UNL1        0.0232
     82 H          10.6818    4.5925    0.0000 H       1  UNL1        0.0232
     83 H          10.6277    3.7174    0.0000 H       1  UNL1        0.0232
@<TRIPOS>BOND
     1    18     1    1
     2     1    67    1
     3     2     3    1
     4     2     4    1
     5     2     5    1
     6     2     8    1
     7     3     4    1
     8     3     6    1
     9     3    10    1
    10     4    32    1
    11     4    33    1
    12     5     7    1
    13     5    11    1
    14     5    34    1
    15     6    12    1
    16     6    14    1
    17     6    35    1
    18     7     9    1
    19     7    16    1
    20     7    20    1
    21     8    13    1
    22     8    36    1
    23     8    37    1
    24     9    13    1
    25     9    15    1
    26     9    21    1
    27    10    17    1
    28    10    38    1
    29    10    39    1
    30    11    12    1
    31    11    40    1
    32    11    41    1
    33    12    42    1
    34    12    43    1
    35    13    44    1
    36    13    45    1
    37    14    18    1
    38    14    23    1
    39    14    24    1
    40    15    19    1
    41    15    22    1
    42    15    46    1
    43    16    19    1
    44    16    47    1
    45    16    48    1
    46    17    18    1
    47    17    49    1
    48    17    50    1
    49    18    51    1
    50    19    52    1
    51    19    53    1
    52    20    54    1
    53    20    55    1
    54    20    56    1
    55    21    57    1
    56    21    58    1
    57    21    59    1
    58    22    25    1
    59    22    26    1
    60    22    60    1
    61    23    61    1
    62    23    65    1
    63    23    66    1
    64    24    62    1
    65    24    63    1
    66    24    64    1
    67    25    27    1
    68    25    68    1
    69    25    69    1
    70    26    70    1
    71    26    71    1
    72    26    72    1
    73    27    28    1
    74    27    73    1
    75    27    74    1
    76    28    29    1
    77    28    75    1
    78    28    76    1
    79    29    30    1
    80    29    31    1
    81    29    77    1
    82    30    78    1
    83    30    79    1
    84    30    80    1
    85    31    81    1
    86    31    82    1
    87    31    83    1
