@<TRIPOS>MOLECULE
IMPHY005319
 73 80 0 0 0
SMALL
GASTEIGER

@<TRIPOS>ATOM
      1 O           6.1964   -0.4697    0.0000 O.3     1  UNL1       -0.4482
      2 O           4.5808    0.4630    0.0000 O.3     1  UNL1       -0.4449
      3 O           2.8698   -0.4358    0.0000 O.3     1  UNL1       -0.4913
      4 O          10.5744   -1.8518    0.0000 O.3     1  UNL1       -0.4523
      5 O           9.6491   -1.2820    0.0000 O.3     1  UNL1       -0.4914
      6 N           6.3071   -3.4051    0.0000 N.3     1  UNL1       -0.3086
      7 N           7.9446    3.4118    0.0000 N.3     1  UNL1       -0.3087
      8 C           6.2915   -2.3931    0.0000 C.3     1  UNL1        0.0407
      9 C           5.4036   -1.9076    0.0000 C.ar    1  UNL1        0.0192
     10 C           7.9368    2.3998    0.0000 C.3     1  UNL1        0.0372
     11 C           7.0527    1.9074    0.0000 C.ar    1  UNL1       -0.0233
     12 C           4.5660   -2.3998    0.0000 C.ar    1  UNL1       -0.0343
     13 C           6.2112    2.3932    0.0000 C.ar    1  UNL1       -0.0378
     14 C           4.5581   -3.4118    0.0000 C.3     1  UNL1       -0.0145
     15 C           5.4346   -3.9178    0.0000 C.3     1  UNL1        0.0004
     16 C           5.3886   -0.9361    0.0000 C.ar    1  UNL1        0.1792
     17 C           7.0902   -1.9113    0.0000 C.3     1  UNL1       -0.0080
     18 C           6.1957    3.4051    0.0000 C.3     1  UNL1       -0.0147
     19 C           7.0682    3.9178    0.0000 C.3     1  UNL1        0.0004
     20 C           8.7392    1.9241    0.0000 C.3     1  UNL1       -0.0080
     21 C           4.5808   -0.4697    0.0000 C.ar    1  UNL1        0.2122
     22 C           6.1964    0.4630    0.0000 C.ar    1  UNL1        0.1710
     23 C           7.0452    0.9358    0.0000 C.ar    1  UNL1       -0.0107
     24 C           5.3886    0.9294    0.0000 C.ar    1  UNL1        0.1711
     25 C           5.3736    1.9008    0.0000 C.ar    1  UNL1       -0.0121
     26 C           3.7245   -1.9140    0.0000 C.ar    1  UNL1       -0.0125
     27 C           3.7320   -0.9424    0.0000 C.ar    1  UNL1        0.1661
     28 C           7.9068   -2.3620    0.0000 C.ar    1  UNL1       -0.0453
     29 C           8.7282    0.9663    0.0000 C.ar    1  UNL1       -0.0419
     30 C           7.9247   -3.2946    0.0000 C.ar    1  UNL1       -0.0550
     31 C           8.7054   -1.8801    0.0000 C.ar    1  UNL1       -0.0550
     32 C           9.5521    0.4779    0.0000 C.ar    1  UNL1       -0.0124
     33 C           7.8932    0.4970    0.0000 C.ar    1  UNL1       -0.0548
     34 C           9.5411   -0.4798    0.0000 C.ar    1  UNL1        0.1701
     35 C           9.5400   -3.2635    0.0000 C.ar    1  UNL1        0.1286
     36 C           8.7413   -3.7452    0.0000 C.ar    1  UNL1       -0.0191
     37 C           9.5220   -2.3308    0.0000 C.ar    1  UNL1       -0.0191
     38 C           7.8822   -0.4608    0.0000 C.ar    1  UNL1       -0.0160
     39 C           8.7061   -0.9492    0.0000 C.ar    1  UNL1        0.1621
     40 C           2.0000   -0.9291    0.0000 C.3     1  UNL1        0.0790
     41 C          10.4089   -0.6317    0.0000 C.3     1  UNL1        0.0790
     42 H           6.2734   -1.5433    0.0000 H       1  UNL1        0.0514
     43 H           8.6770    2.8176    0.0000 H       1  UNL1        0.0513
     44 H           3.9481   -3.3010    0.0000 H       1  UNL1        0.0326
     45 H           4.3446   -3.9939    0.0000 H       1  UNL1        0.0326
     46 H           5.0373   -4.3938    0.0000 H       1  UNL1        0.0427
     47 H           5.8356   -4.3907    0.0000 H       1  UNL1        0.0427
     48 H           6.8464   -3.7110    0.0000 H       1  UNL1        0.1225
     49 H           7.4795   -1.4288    0.0000 H       1  UNL1        0.0332
     50 H           6.6826   -1.4441    0.0000 H       1  UNL1        0.0332
     51 H           5.9776    3.9855    0.0000 H       1  UNL1        0.0326
     52 H           5.5865    3.2896    0.0000 H       1  UNL1        0.0326
     53 H           7.4654    4.3938    0.0000 H       1  UNL1        0.0427
     54 H           6.6672    4.3907    0.0000 H       1  UNL1        0.0427
     55 H           8.4816    3.7218    0.0000 H       1  UNL1        0.1225
     56 H           9.3485    1.8094    0.0000 H       1  UNL1        0.0332
     57 H           8.9579    2.5042    0.0000 H       1  UNL1        0.0332
     58 H           7.5785    0.6196    0.0000 H       1  UNL1        0.0659
     59 H           4.8331    2.2046    0.0000 H       1  UNL1        0.0658
     60 H           3.1864   -2.2219    0.0000 H       1  UNL1        0.0658
     61 H           7.3938   -3.6148    0.0000 H       1  UNL1        0.0621
     62 H           8.6934   -1.2603    0.0000 H       1  UNL1        0.0621
     63 H          10.0926    0.7818    0.0000 H       1  UNL1        0.0658
     64 H           7.3598    0.8131    0.0000 H       1  UNL1        0.0621
     65 H           8.7532   -4.3651    0.0000 H       1  UNL1        0.0654
     66 H          10.0529   -2.0105    0.0000 H       1  UNL1        0.0654
     67 H           7.3417   -0.7646    0.0000 H       1  UNL1        0.0655
     68 H           1.6941   -0.3898    0.0000 H       1  UNL1        0.0660
     69 H           1.4607   -1.2350    0.0000 H       1  UNL1        0.0660
     70 H           2.3059   -1.4684    0.0000 H       1  UNL1        0.0660
     71 H          10.8120   -1.1028    0.0000 H       1  UNL1        0.0660
     72 H          10.8799   -0.2286    0.0000 H       1  UNL1        0.0660
     73 H          10.0057   -0.1607    0.0000 H       1  UNL1        0.0660
@<TRIPOS>BOND
     1     1    16    1
     2     1    22    1
     3     2    21    1
     4     2    24    1
     5     3    27    1
     6     3    40    1
     7     4    34    1
     8     4    35    1
     9     5    39    1
    10     5    41    1
    11     6     8    1
    12     6    15    1
    13     6    48    1
    14     7    10    1
    15     7    19    1
    16     7    55    1
    17     8     9    1
    18     8    17    1
    19     8    42    1
    20     9    12   ar
    21     9    16   ar
    22    10    11    1
    23    10    20    1
    24    10    43    1
    25    11    13   ar
    26    11    23   ar
    27    12    14    1
    28    12    26   ar
    29    13    18    1
    30    13    25   ar
    31    14    15    1
    32    14    44    1
    33    14    45    1
    34    15    46    1
    35    15    47    1
    36    16    21   ar
    37    17    28    1
    38    17    49    1
    39    17    50    1
    40    18    19    1
    41    18    51    1
    42    18    52    1
    43    19    53    1
    44    19    54    1
    45    20    29    1
    46    20    56    1
    47    20    57    1
    48    21    27   ar
    49    22    23   ar
    50    22    24   ar
    51    23    58    1
    52    24    25   ar
    53    25    59    1
    54    26    27   ar
    55    26    60    1
    56    28    30   ar
    57    28    31   ar
    58    29    32   ar
    59    29    33   ar
    60    30    36   ar
    61    30    61    1
    62    31    37   ar
    63    31    62    1
    64    32    34   ar
    65    32    63    1
    66    33    38   ar
    67    33    64    1
    68    34    39   ar
    69    35    36   ar
    70    35    37   ar
    71    36    65    1
    72    37    66    1
    73    38    39   ar
    74    38    67    1
    75    40    68    1
    76    40    69    1
    77    40    70    1
    78    41    71    1
    79    41    72    1
    80    41    73    1
