@<TRIPOS>MOLECULE
IMPHY012887
 86 92 0 0 0
SMALL
GASTEIGER

@<TRIPOS>ATOM
      1 O           7.3257   -1.9467    0.0000 O.3     1  UNL1       -0.3179
      2 O           6.4134   -2.7374    0.0000 O.3     1  UNL1       -0.3190
      3 O           6.1093   -3.7916    0.0000 O.3     1  UNL1       -0.3125
      4 O           8.5690   -0.0084    0.0000 O.3     1  UNL1       -0.3797
      5 O           9.3821    0.4604    0.0000 O.2     1  UNL1       -0.2893
      6 O           6.3372    0.6049    0.0000 O.3     1  UNL1       -0.4600
      7 O           4.6245    0.8631    0.0000 O.2     1  UNL1       -0.2505
      8 O           4.4389    5.4419    0.0000 O.3     1  UNL1       -0.4915
      9 O           2.5771    4.7112    0.0000 O.3     1  UNL1       -0.5033
     10 C           8.2481   -2.6101    0.0000 C.3     1  UNL1        0.0956
     11 C           7.3358   -2.6101    0.0000 C.3     1  UNL1        0.0371
     12 C           6.8797   -3.4001    0.0000 C.3     1  UNL1        0.1060
     13 C           7.3358   -4.1902    0.0000 C.3     1  UNL1        0.1226
     14 C           8.7043   -3.4001    0.0000 C.3     1  UNL1       -0.0102
     15 C           8.8169   -1.8968    0.0000 C.3     1  UNL1        0.0443
     16 C           8.2481   -4.1902    0.0000 C.3     1  UNL1       -0.0120
     17 C           5.4808   -2.7374    0.0000 C.3     1  UNL1        0.2914
     18 C           8.6139   -1.0074    0.0000 C.3     1  UNL1        0.1403
     19 C           6.7670   -1.8968    0.0000 C.2     1  UNL1       -0.0731
     20 C           9.7043   -3.4001    0.0000 C.3     1  UNL1       -0.0597
     21 C           7.7920   -0.6116    0.0000 C.3     1  UNL1        0.0084
     22 C           7.1793   -5.1779    0.0000 C.2     1  UNL1       -0.0457
     23 C           9.7255   -1.9786    0.0000 C.2     1  UNL1       -0.0687
     24 C           6.9700   -1.0074    0.0000 C.2     1  UNL1       -0.0329
     25 C           4.5298   -2.4283    0.0000 C.3     1  UNL1        0.0546
     26 C           9.3971   -0.5395    0.0000 C.2     1  UNL1        0.1909
     27 C          10.0841   -1.1397    0.0000 C.2     1  UNL1       -0.0086
     28 C           7.9564   -5.8072    0.0000 C.3     1  UNL1       -0.0413
     29 C           6.1882   -0.3839    0.0000 C.3     1  UNL1        0.1137
     30 C           6.2457   -5.5362    0.0000 C.2     1  UNL1       -0.0969
     31 C           3.7866   -3.0974    0.0000 C.ar    1  UNL1       -0.0397
     32 C          11.0590   -0.9172    0.0000 C.3     1  UNL1       -0.0366
     33 C           2.8356   -2.7884    0.0000 C.ar    1  UNL1       -0.0583
     34 C           3.9945   -4.0756    0.0000 C.ar    1  UNL1       -0.0583
     35 C           2.0924   -3.4576    0.0000 C.ar    1  UNL1       -0.0615
     36 C           3.2514   -4.7447    0.0000 C.ar    1  UNL1       -0.0615
     37 C           5.5554    1.2284    0.0000 C.2     1  UNL1        0.3118
     38 C           2.3003   -4.4357    0.0000 C.ar    1  UNL1       -0.0617
     39 C           5.7045    2.2173    0.0000 C.3     1  UNL1        0.0702
     40 C           4.9226    2.8408    0.0000 C.ar    1  UNL1       -0.0331
     41 C           5.0717    3.8296    0.0000 C.ar    1  UNL1       -0.0126
     42 C           3.9918    2.4754    0.0000 C.ar    1  UNL1       -0.0544
     43 C           4.2899    4.4531    0.0000 C.ar    1  UNL1        0.1615
     44 C           3.2099    3.0989    0.0000 C.ar    1  UNL1       -0.0163
     45 C           3.3590    4.0877    0.0000 C.ar    1  UNL1        0.1585
     46 C           5.3698    5.8072    0.0000 C.3     1  UNL1        0.0790
     47 H           7.7608   -3.3462    0.0000 H       1  UNL1        0.0398
     48 H           6.6469   -4.2176    0.0000 H       1  UNL1        0.0637
     49 H           9.0143   -3.9371    0.0000 H       1  UNL1        0.0327
     50 H           9.1510   -2.6784    0.0000 H       1  UNL1        0.0404
     51 H           8.1404   -4.8008    0.0000 H       1  UNL1        0.0301
     52 H           8.8307   -4.4023    0.0000 H       1  UNL1        0.0301
     53 H           6.1626   -2.0348    0.0000 H       1  UNL1        0.0577
     54 H           9.7043   -4.0201    0.0000 H       1  UNL1        0.0233
     55 H          10.3243   -3.4001    0.0000 H       1  UNL1        0.0233
     56 H           9.7043   -2.7801    0.0000 H       1  UNL1        0.0233
     57 H           8.1785   -0.1268    0.0000 H       1  UNL1        0.0343
     58 H           7.4054   -0.1268    0.0000 H       1  UNL1        0.0343
     59 H          10.0435   -2.5108    0.0000 H       1  UNL1        0.0580
     60 H           4.8208   -1.8809    0.0000 H       1  UNL1        0.0392
     61 H           4.0412   -2.0466    0.0000 H       1  UNL1        0.0392
     62 H           8.0187    0.2772    0.0000 H       1  UNL1        0.2108
     63 H           7.5662   -6.2891    0.0000 H       1  UNL1        0.0275
     64 H           8.4383   -6.1974    0.0000 H       1  UNL1        0.0275
     65 H           8.3467   -5.3254    0.0000 H       1  UNL1        0.0275
     66 H           5.6005   -0.1864    0.0000 H       1  UNL1        0.0745
     67 H           5.8917   -0.9284    0.0000 H       1  UNL1        0.0745
     68 H           5.7639   -5.1460    0.0000 H       1  UNL1        0.0535
     69 H           6.1487   -6.1486    0.0000 H       1  UNL1        0.0535
     70 H          11.1970   -1.5216    0.0000 H       1  UNL1        0.0279
     71 H          11.6635   -0.7792    0.0000 H       1  UNL1        0.0279
     72 H          10.9211   -0.3127    0.0000 H       1  UNL1        0.0279
     73 H           2.7067   -2.1820    0.0000 H       1  UNL1        0.0620
     74 H           4.5842   -4.2672    0.0000 H       1  UNL1        0.0620
     75 H           1.5028   -3.2660    0.0000 H       1  UNL1        0.0618
     76 H           3.3803   -5.3512    0.0000 H       1  UNL1        0.0618
     77 H           1.8396   -4.8506    0.0000 H       1  UNL1        0.0618
     78 H           6.2922    2.0198    0.0000 H       1  UNL1        0.0426
     79 H           6.0010    2.7618    0.0000 H       1  UNL1        0.0426
     80 H           5.6488    4.0561    0.0000 H       1  UNL1        0.0658
     81 H           3.8993    1.8623    0.0000 H       1  UNL1        0.0622
     82 H           2.6328    2.8724    0.0000 H       1  UNL1        0.0655
     83 H           2.0000    4.4847    0.0000 H       1  UNL1        0.2923
     84 H           5.5963    5.2301    0.0000 H       1  UNL1        0.0660
     85 H           5.9469    6.0338    0.0000 H       1  UNL1        0.0660
     86 H           5.1433    6.3844    0.0000 H       1  UNL1        0.0660
@<TRIPOS>BOND
     1    10     1    1
     2     1    17    1
     3     2    12    1
     4     2    17    1
     5     3    13    1
     6     3    17    1
     7    18     4    1
     8     4    62    1
     9     5    26    2
    10     6    29    1
    11     6    37    1
    12     7    37    2
    13     8    43    1
    14     8    46    1
    15     9    45    1
    16     9    83    1
    17    10    11    1
    18    10    14    1
    19    10    15    1
    20    11    12    1
    21    11    19    1
    22    11    47    1
    23    12    13    1
    24    12    48    1
    25    13    16    1
    26    13    22    1
    27    14    16    1
    28    14    20    1
    29    14    49    1
    30    15    18    1
    31    15    23    1
    32    15    50    1
    33    16    51    1
    34    16    52    1
    35    17    25    1
    36    18    21    1
    37    18    26    1
    38    19    24    2
    39    19    53    1
    40    20    54    1
    41    20    55    1
    42    20    56    1
    43    21    24    1
    44    21    57    1
    45    21    58    1
    46    22    28    1
    47    22    30    2
    48    23    27    2
    49    23    59    1
    50    24    29    1
    51    25    31    1
    52    25    60    1
    53    25    61    1
    54    26    27    1
    55    27    32    1
    56    28    63    1
    57    28    64    1
    58    28    65    1
    59    29    66    1
    60    29    67    1
    61    30    68    1
    62    30    69    1
    63    31    33   ar
    64    31    34   ar
    65    32    70    1
    66    32    71    1
    67    32    72    1
    68    33    35   ar
    69    33    73    1
    70    34    36   ar
    71    34    74    1
    72    35    38   ar
    73    35    75    1
    74    36    38   ar
    75    36    76    1
    76    37    39    1
    77    38    77    1
    78    39    40    1
    79    39    78    1
    80    39    79    1
    81    40    41   ar
    82    40    42   ar
    83    41    43   ar
    84    41    80    1
    85    42    44   ar
    86    42    81    1
    87    43    45   ar
    88    44    45   ar
    89    44    82    1
    90    46    84    1
    91    46    85    1
    92    46    86    1
