@<TRIPOS>MOLECULE
IMPHY003140
 26 28 0 0 0
SMALL
GASTEIGER

@<TRIPOS>ATOM
      1 O           4.6660    1.8246    0.0000 O.2     1  UNL1       -0.2864
      2 O           4.6660   -2.1754    0.0000 O.2     1  UNL1       -0.2866
      3 O           6.4144    1.8592    0.0000 O.3     1  UNL1       -0.5060
      4 O           2.9176    1.8592    0.0000 O.3     1  UNL1       -0.5060
      5 C           5.5321    0.3246    0.0000 C.ar    1  UNL1        0.0745
      6 C           3.8000    0.3246    0.0000 C.ar    1  UNL1        0.0745
      7 C           5.5321   -0.6754    0.0000 C.ar    1  UNL1        0.0366
      8 C           3.8000   -0.6754    0.0000 C.ar    1  UNL1        0.0366
      9 C           4.6660    0.8246    0.0000 C.2     1  UNL1        0.2015
     10 C           4.6660   -1.1754    0.0000 C.2     1  UNL1        0.1947
     11 C           6.4260    0.8593    0.0000 C.ar    1  UNL1        0.1283
     12 C           2.9061    0.8593    0.0000 C.ar    1  UNL1        0.1283
     13 C           6.4260   -1.2100    0.0000 C.ar    1  UNL1       -0.0500
     14 C           2.9061   -1.2100    0.0000 C.ar    1  UNL1       -0.0500
     15 C           7.3321    0.3454    0.0000 C.ar    1  UNL1       -0.0194
     16 C           2.0000    0.3454    0.0000 C.ar    1  UNL1       -0.0194
     17 C           7.3321   -0.6962    0.0000 C.ar    1  UNL1       -0.0576
     18 C           2.0000   -0.6962    0.0000 C.ar    1  UNL1       -0.0576
     19 H           6.4188   -1.8300    0.0000 H       1  UNL1        0.0625
     20 H           2.9132   -1.8300    0.0000 H       1  UNL1        0.0625
     21 H           7.8678    0.6575    0.0000 H       1  UNL1        0.0654
     22 H           1.4643    0.6575    0.0000 H       1  UNL1        0.0654
     23 H           7.8678   -1.0083    0.0000 H       1  UNL1        0.0619
     24 H           1.4643   -1.0083    0.0000 H       1  UNL1        0.0619
     25 H           6.9478    2.1754    0.0000 H       1  UNL1        0.2922
     26 H           2.3843    2.1754    0.0000 H       1  UNL1        0.2922
@<TRIPOS>BOND
     1     1     9    2
     2     2    10    2
     3     3    11    1
     4     3    25    1
     5     4    12    1
     6     4    26    1
     7     5     7   ar
     8     5     9    1
     9     5    11   ar
    10     6     8   ar
    11     6     9    1
    12     6    12   ar
    13     7    10    1
    14     7    13   ar
    15     8    10    1
    16     8    14   ar
    17    11    15   ar
    18    12    16   ar
    19    13    17   ar
    20    13    19    1
    21    14    18   ar
    22    14    20    1
    23    15    17   ar
    24    15    21    1
    25    16    18   ar
    26    16    22    1
    27    17    23    1
    28    18    24    1
