@<TRIPOS>MOLECULE
IMPHY005853
 21 22 0 0 0
SMALL
GASTEIGER

@<TRIPOS>ATOM
      1 O           5.9674   -2.0646    0.0000 O.2     1  UNL1       -0.1233
      2 N           4.6783   -0.9078    0.0000 N.ar    1  UNL1       -0.2036
      3 N           4.9889   -1.8584    0.0000 N.2     1  UNL1        0.0626
      4 N           6.9459    2.0646    0.0000 N.1     1  UNL1       -0.1962
      5 C           3.7320    0.3969    0.0000 C.ar    1  UNL1        0.0061
      6 C           3.7320   -0.6031    0.0000 C.ar    1  UNL1        0.0758
      7 C           4.6783    0.7016    0.0000 C.ar    1  UNL1       -0.0063
      8 C           5.2619   -0.1031    0.0000 C.ar    1  UNL1        0.0375
      9 C           2.8660    0.8969    0.0000 C.ar    1  UNL1       -0.0522
     10 C           4.9889    1.6521    0.0000 C.3     1  UNL1        0.0619
     11 C           2.8660   -1.1031    0.0000 C.ar    1  UNL1       -0.0356
     12 C           2.0000    0.3969    0.0000 C.ar    1  UNL1       -0.0611
     13 C           2.0000   -0.6031    0.0000 C.ar    1  UNL1       -0.0597
     14 C           5.9674    1.8584    0.0000 C.1     1  UNL1        0.0673
     15 H           5.8819   -0.1031    0.0000 H       1  UNL1        0.0834
     16 H           2.8660    1.5169    0.0000 H       1  UNL1        0.0624
     17 H           4.9684    2.2718    0.0000 H       1  UNL1        0.0467
     18 H           4.3751    1.7395    0.0000 H       1  UNL1        0.0467
     19 H           2.8660   -1.7231    0.0000 H       1  UNL1        0.0639
     20 H           1.4631    0.7069    0.0000 H       1  UNL1        0.0618
     21 H           1.4631   -0.9131    0.0000 H       1  UNL1        0.0618
@<TRIPOS>BOND
     1     1     3    2
     2     2     3    1
     3     2     6   ar
     4     2     8   ar
     5     4    14    3
     6     5     6   ar
     7     5     7   ar
     8     5     9   ar
     9     6    11   ar
    10     7     8   ar
    11     7    10    1
    12     8    15    1
    13     9    12   ar
    14     9    16    1
    15    10    14    1
    16    10    17    1
    17    10    18    1
    18    11    13   ar
    19    11    19    1
    20    12    13   ar
    21    12    20    1
    22    13    21    1
