@<TRIPOS>MOLECULE
IMPHY016179
 24 24 0 0 0
SMALL
GASTEIGER

@<TRIPOS>ATOM
      1 C           2.8660   -0.7500    0.0000 C.ar    1  UNL1       -0.0474
      2 C           3.7320    0.7500    0.0000 C.ar    1  UNL1       -0.0474
      3 C           2.8660    0.2500    0.0000 C.ar    1  UNL1       -0.0554
      4 C           2.0000   -1.2500    0.0000 C.3     1  UNL1       -0.0305
      5 C           3.7320    1.7500    0.0000 C.3     1  UNL1       -0.0305
      6 C           3.7320   -1.2500    0.0000 C.ar    1  UNL1       -0.0586
      7 C           4.5981    0.2500    0.0000 C.ar    1  UNL1       -0.0586
      8 C           4.5981   -0.7500    0.0000 C.ar    1  UNL1       -0.0612
      9 C           2.0000   -2.2500    0.0000 C.3     1  UNL1       -0.0613
     10 C           4.5981    2.2500    0.0000 C.3     1  UNL1       -0.0613
     11 H           1.7880   -0.6674    0.0000 H       1  UNL1        0.0311
     12 H           1.3894   -1.3577    0.0000 H       1  UNL1        0.0311
     13 H           3.5200    2.3326    0.0000 H       1  UNL1        0.0311
     14 H           3.1215    1.6423    0.0000 H       1  UNL1        0.0311
     15 H           2.3291    0.5600    0.0000 H       1  UNL1        0.0623
     16 H           3.7320   -1.8700    0.0000 H       1  UNL1        0.0620
     17 H           5.1350    0.5600    0.0000 H       1  UNL1        0.0620
     18 H           5.1350   -1.0600    0.0000 H       1  UNL1        0.0618
     19 H           1.3800   -2.2500    0.0000 H       1  UNL1        0.0233
     20 H           2.0000   -2.8700    0.0000 H       1  UNL1        0.0233
     21 H           2.6200   -2.2500    0.0000 H       1  UNL1        0.0233
     22 H           4.9081    1.7131    0.0000 H       1  UNL1        0.0233
     23 H           5.1350    2.5600    0.0000 H       1  UNL1        0.0233
     24 H           4.2881    2.7869    0.0000 H       1  UNL1        0.0233
@<TRIPOS>BOND
     1     1     3   ar
     2     1     4    1
     3     1     6   ar
     4     2     3   ar
     5     2     5    1
     6     2     7   ar
     7     3    15    1
     8     4     9    1
     9     4    11    1
    10     4    12    1
    11     5    10    1
    12     5    13    1
    13     5    14    1
    14     6     8   ar
    15     6    16    1
    16     7     8   ar
    17     7    17    1
    18     8    18    1
    19     9    19    1
    20     9    20    1
    21     9    21    1
    22    10    22    1
    23    10    23    1
    24    10    24    1
