@<TRIPOS>MOLECULE
IMPHY007762
 35 37 0 0 0
SMALL
GASTEIGER

@<TRIPOS>ATOM
      1 O           6.0682   -2.2327    0.0000 O.3     1  UNL1       -0.4910
      2 O           6.9343    1.2673    0.0000 O.2     1  UNL1       -0.2875
      3 O          10.3984    1.2673    0.0000 O.2     1  UNL1       -0.4912
      4 O           2.5381   -2.2568    0.0000 O.3     1  UNL1       -0.5066
      5 O          10.3984   -0.7327    0.0000 O.2     1  UNL1       -0.2840
      6 C           6.9343   -0.7327    0.0000 C.3     1  UNL1        0.0261
      7 C           6.0682   -0.2327    0.0000 C.3     1  UNL1       -0.0142
      8 C           6.9343   -1.7327    0.0000 C.3     1  UNL1        0.0968
      9 C           5.2022   -0.7327    0.0000 C.ar    1  UNL1       -0.0048
     10 C           7.8003   -0.2327    0.0000 C.2     1  UNL1        0.0097
     11 C           5.2022   -1.7327    0.0000 C.ar    1  UNL1        0.1272
     12 C           4.3083   -0.1980    0.0000 C.ar    1  UNL1       -0.0516
     13 C           7.8003    0.7673    0.0000 C.2     1  UNL1        0.1862
     14 C           8.6663   -0.7327    0.0000 C.2     1  UNL1       -0.0041
     15 C           4.3083   -2.2673    0.0000 C.ar    1  UNL1        0.0218
     16 C           3.4022   -0.7119    0.0000 C.ar    1  UNL1       -0.0197
     17 C           3.4022   -1.7535    0.0000 C.ar    1  UNL1        0.1203
     18 C           9.5323   -0.2327    0.0000 C.2     1  UNL1        0.2207
     19 C           8.6663    1.2673    0.0000 C.2     1  UNL1        0.0309
     20 C           9.5323    0.7673    0.0000 C.2     1  UNL1        0.1702
     21 C          10.3984    2.2673    0.0000 C.3     1  UNL1        0.0790
     22 H           6.9343    0.1173    0.0000 H       1  UNL1        0.0386
     23 H           6.4668    0.2423    0.0000 H       1  UNL1        0.0321
     24 H           5.6697    0.2423    0.0000 H       1  UNL1        0.0321
     25 H           7.1463   -2.3153    0.0000 H       1  UNL1        0.0703
     26 H           7.5449   -1.6250    0.0000 H       1  UNL1        0.0703
     27 H           4.3154    0.4220    0.0000 H       1  UNL1        0.0623
     28 H           8.6663   -1.3527    0.0000 H       1  UNL1        0.0661
     29 H           4.3154   -2.8873    0.0000 H       1  UNL1        0.0691
     30 H           2.8665   -0.3998    0.0000 H       1  UNL1        0.0654
     31 H           8.6663    1.8873    0.0000 H       1  UNL1        0.0694
     32 H           2.0000   -1.9489    0.0000 H       1  UNL1        0.2921
     33 H          11.0184    2.2673    0.0000 H       1  UNL1        0.0660
     34 H          10.3984    2.8873    0.0000 H       1  UNL1        0.0660
     35 H           9.7784    2.2673    0.0000 H       1  UNL1        0.0660
@<TRIPOS>BOND
     1     1     8    1
     2     1    11    1
     3     2    13    2
     4     3    20    1
     5     3    21    1
     6     4    17    1
     7     4    32    1
     8     5    18    2
     9     6     7    1
    10     6     8    1
    11     6    10    1
    12     6    22    1
    13     7     9    1
    14     7    23    1
    15     7    24    1
    16     8    25    1
    17     8    26    1
    18     9    11   ar
    19     9    12   ar
    20    10    13    1
    21    10    14    2
    22    11    15   ar
    23    12    16   ar
    24    12    27    1
    25    13    19    1
    26    14    18    1
    27    14    28    1
    28    15    17   ar
    29    15    29    1
    30    16    17   ar
    31    16    30    1
    32    18    20    1
    33    19    20    2
    34    19    31    1
    35    21    33    1
    36    21    34    1
    37    21    35    1
