@<TRIPOS>MOLECULE
IMPHY014814
 45 47 0 0 0
SMALL
GASTEIGER

@<TRIPOS>ATOM
      1 O           6.0682   -0.9254    0.0000 O.3     1  UNL1       -0.4828
      2 O           6.0682    2.0746    0.0000 O.2     1  UNL1       -0.2917
      3 O          10.3984   -2.4254    0.0000 O.3     1  UNL1       -0.4880
      4 O           4.3198    2.1092    0.0000 O.3     1  UNL1       -0.5058
      5 O           2.5381   -0.9495    0.0000 O.3     1  UNL1       -0.5065
      6 C           6.9343   -0.4254    0.0000 C.3     1  UNL1        0.1322
      7 C           6.9343    0.5746    0.0000 C.3     1  UNL1        0.0520
      8 C           7.8003   -0.9254    0.0000 C.ar    1  UNL1       -0.0067
      9 C           5.2022    0.5746    0.0000 C.ar    1  UNL1        0.1007
     10 C           6.0682    1.0746    0.0000 C.2     1  UNL1        0.1740
     11 C           5.2022   -0.4254    0.0000 C.ar    1  UNL1        0.1389
     12 C           8.6663   -0.4254    0.0000 C.ar    1  UNL1       -0.0516
     13 C           7.8003   -1.9254    0.0000 C.ar    1  UNL1       -0.0516
     14 C           4.3083    1.1093    0.0000 C.ar    1  UNL1        0.1343
     15 C           4.3083   -0.9601    0.0000 C.ar    1  UNL1        0.0225
     16 C           9.5323   -0.9254    0.0000 C.ar    1  UNL1       -0.0196
     17 C           8.6663   -2.4254    0.0000 C.ar    1  UNL1       -0.0196
     18 C           3.4022    0.5954    0.0000 C.ar    1  UNL1        0.0222
     19 C           3.4022   -0.4462    0.0000 C.ar    1  UNL1        0.1238
     20 C           9.5323   -1.9254    0.0000 C.ar    1  UNL1        0.1210
     21 C          11.2644   -1.9254    0.0000 C.3     1  UNL1        0.1080
     22 C          12.1304   -2.4254    0.0000 C.2     1  UNL1       -0.0484
     23 C          12.9965   -1.9254    0.0000 C.2     1  UNL1       -0.0765
     24 C          13.8625   -2.4254    0.0000 C.3     1  UNL1       -0.0439
     25 C          12.9965   -0.9254    0.0000 C.3     1  UNL1       -0.0439
     26 H           6.9343   -1.0454    0.0000 H       1  UNL1        0.0789
     27 H           7.5449    0.4669    0.0000 H       1  UNL1        0.0385
     28 H           7.1463    1.1572    0.0000 H       1  UNL1        0.0385
     29 H           8.6663    0.1946    0.0000 H       1  UNL1        0.0623
     30 H           7.2634   -2.2354    0.0000 H       1  UNL1        0.0623
     31 H           4.3154   -1.5800    0.0000 H       1  UNL1        0.0691
     32 H          10.0693   -0.6154    0.0000 H       1  UNL1        0.0654
     33 H           8.6663   -3.0454    0.0000 H       1  UNL1        0.0654
     34 H           2.8665    0.9075    0.0000 H       1  UNL1        0.0691
     35 H           3.7865    2.4254    0.0000 H       1  UNL1        0.2922
     36 H          11.6629   -1.4504    0.0000 H       1  UNL1        0.0742
     37 H          10.8659   -1.4504    0.0000 H       1  UNL1        0.0742
     38 H           2.0000   -0.6416    0.0000 H       1  UNL1        0.2921
     39 H          12.1304   -3.0454    0.0000 H       1  UNL1        0.0605
     40 H          13.5525   -2.9623    0.0000 H       1  UNL1        0.0274
     41 H          14.3994   -2.7354    0.0000 H       1  UNL1        0.0274
     42 H          14.1725   -1.8885    0.0000 H       1  UNL1        0.0274
     43 H          13.6165   -0.9254    0.0000 H       1  UNL1        0.0274
     44 H          12.9965   -0.3054    0.0000 H       1  UNL1        0.0274
     45 H          12.3765   -0.9254    0.0000 H       1  UNL1        0.0274
@<TRIPOS>BOND
     1     1     6    1
     2     1    11    1
     3     2    10    2
     4     3    20    1
     5     3    21    1
     6     4    14    1
     7     4    35    1
     8     5    19    1
     9     5    38    1
    10     6     7    1
    11     6     8    1
    12     6    26    1
    13     7    10    1
    14     7    27    1
    15     7    28    1
    16     8    12   ar
    17     8    13   ar
    18     9    10    1
    19     9    11   ar
    20     9    14   ar
    21    11    15   ar
    22    12    16   ar
    23    12    29    1
    24    13    17   ar
    25    13    30    1
    26    14    18   ar
    27    15    19   ar
    28    15    31    1
    29    16    20   ar
    30    16    32    1
    31    17    20   ar
    32    17    33    1
    33    18    19   ar
    34    18    34    1
    35    21    22    1
    36    21    36    1
    37    21    37    1
    38    22    23    2
    39    22    39    1
    40    23    24    1
    41    23    25    1
    42    24    40    1
    43    24    41    1
    44    24    42    1
    45    25    43    1
    46    25    44    1
    47    25    45    1
