@<TRIPOS>MOLECULE
IMPHY014666
 79 83 0 0 0
SMALL
GASTEIGER

@<TRIPOS>ATOM
      1 O           2.5357   -2.6574    0.0000 O.3     1  UNL1       -0.3912
      2 C           7.0628   -1.1050    0.0000 C.3     1  UNL1       -0.0191
      3 C           5.2868   -1.1119    0.0000 C.3     1  UNL1       -0.0250
      4 C           6.1968   -0.6051    0.0000 C.3     1  UNL1       -0.0257
      5 C           5.2787   -2.1535    0.0000 C.3     1  UNL1       -0.0278
      6 C           7.9288   -0.6051    0.0000 C.3     1  UNL1       -0.0014
      7 C           7.0789   -2.1466    0.0000 C.3     1  UNL1       -0.0463
      8 C           4.3433   -2.7032    0.0000 C.3     1  UNL1       -0.0056
      9 C           6.1808   -2.6743    0.0000 C.3     1  UNL1       -0.0486
     10 C           4.3599   -0.5478    0.0000 C.3     1  UNL1       -0.0447
     11 C           6.1968    0.3949    0.0000 C.3     1  UNL1       -0.0303
     12 C           7.9288    0.3949    0.0000 C.2     1  UNL1       -0.0412
     13 C           8.8228   -1.1397    0.0000 C.3     1  UNL1       -0.0423
     14 C           3.4037   -2.1607    0.0000 C.3     1  UNL1        0.0606
     15 C           7.7056   -1.8711    0.0000 C.3     1  UNL1       -0.0585
     16 C           5.2945   -0.1119    0.0000 C.3     1  UNL1       -0.0590
     17 C           3.4120   -1.0758    0.0000 C.3     1  UNL1       -0.0258
     18 C           9.7288    0.4158    0.0000 C.3     1  UNL1       -0.0068
     19 C           7.0628    0.8949    0.0000 C.2     1  UNL1       -0.0797
     20 C           9.7288   -0.6259    0.0000 C.3     1  UNL1       -0.0428
     21 C           8.8228    0.9296    0.0000 C.2     1  UNL1       -0.0388
     22 C           8.2709   -1.5447    0.0000 C.3     1  UNL1       -0.0550
     23 C           3.8467   -3.5712    0.0000 C.3     1  UNL1       -0.0572
     24 C           4.8466   -3.5673    0.0000 C.3     1  UNL1       -0.0572
     25 C          10.6726    0.9510    0.0000 C.3     1  UNL1       -0.0431
     26 C           8.7977    2.0143    0.0000 C.2     1  UNL1       -0.0658
     27 C          10.5987   -0.0775    0.0000 C.3     1  UNL1       -0.0555
     28 C           9.7288    2.5712    0.0000 C.3     1  UNL1       -0.0224
     29 C          10.6726    2.0360    0.0000 C.3     1  UNL1       -0.0460
     30 C           7.9222    2.4975    0.0000 C.3     1  UNL1       -0.0430
     31 C           9.7173    3.5712    0.0000 C.3     1  UNL1       -0.0587
     32 H           6.7337   -0.2951    0.0000 H       1  UNL1        0.0315
     33 H           5.2811   -2.7735    0.0000 H       1  UNL1        0.0312
     34 H           7.2969   -2.7270    0.0000 H       1  UNL1        0.0271
     35 H           7.6880   -2.0311    0.0000 H       1  UNL1        0.0271
     36 H           5.7835   -3.1503    0.0000 H       1  UNL1        0.0268
     37 H           6.5818   -3.1472    0.0000 H       1  UNL1        0.0268
     38 H           4.7681   -0.0812    0.0000 H       1  UNL1        0.0271
     39 H           3.9700   -0.0658    0.0000 H       1  UNL1        0.0271
     40 H           5.9847    0.9776    0.0000 H       1  UNL1        0.0311
     41 H           5.5862    0.2873    0.0000 H       1  UNL1        0.0311
     42 H           8.4182   -1.6095    0.0000 H       1  UNL1        0.0274
     43 H           9.2164   -1.6187    0.0000 H       1  UNL1        0.0274
     44 H           3.4025   -2.7807    0.0000 H       1  UNL1        0.0599
     45 H           7.2306   -2.2696    0.0000 H       1  UNL1        0.0235
     46 H           8.1041   -2.3460    0.0000 H       1  UNL1        0.0235
     47 H           8.1805   -1.4726    0.0000 H       1  UNL1        0.0235
     48 H           5.9145   -0.1167    0.0000 H       1  UNL1        0.0235
     49 H           5.2993    0.5081    0.0000 H       1  UNL1        0.0235
     50 H           4.6745   -0.1071    0.0000 H       1  UNL1        0.0235
     51 H           3.2075   -0.4905    0.0000 H       1  UNL1        0.0290
     52 H           2.8004   -1.1771    0.0000 H       1  UNL1        0.0290
     53 H           7.0628    1.5150    0.0000 H       1  UNL1        0.0575
     54 H           9.9379   -1.2096    0.0000 H       1  UNL1        0.0274
     55 H          10.3397   -0.5198    0.0000 H       1  UNL1        0.0274
     56 H           7.6884   -1.7568    0.0000 H       1  UNL1        0.0238
     57 H           8.4830   -2.1273    0.0000 H       1  UNL1        0.0238
     58 H           8.8535   -1.3326    0.0000 H       1  UNL1        0.0238
     59 H           3.3085   -3.2632    0.0000 H       1  UNL1        0.0236
     60 H           3.5387   -4.1093    0.0000 H       1  UNL1        0.0236
     61 H           4.3848   -3.8791    0.0000 H       1  UNL1        0.0236
     62 H           4.3109   -3.8794    0.0000 H       1  UNL1        0.0236
     63 H           5.1587   -4.1030    0.0000 H       1  UNL1        0.0236
     64 H           5.3824   -3.2553    0.0000 H       1  UNL1        0.0236
     65 H          10.8817    0.3673    0.0000 H       1  UNL1        0.0274
     66 H          11.2835    1.0571    0.0000 H       1  UNL1        0.0274
     67 H          10.2928   -0.6169    0.0000 H       1  UNL1        0.0238
     68 H          11.1380   -0.3834    0.0000 H       1  UNL1        0.0238
     69 H          10.9045    0.4618    0.0000 H       1  UNL1        0.0238
     70 H          10.2628    2.8864    0.0000 H       1  UNL1        0.0343
     71 H          11.2835    1.9299    0.0000 H       1  UNL1        0.0271
     72 H          10.8817    2.6197    0.0000 H       1  UNL1        0.0271
     73 H           2.0000   -2.3453    0.0000 H       1  UNL1        0.2098
     74 H           8.2218    3.0403    0.0000 H       1  UNL1        0.0275
     75 H           7.3794    2.7971    0.0000 H       1  UNL1        0.0275
     76 H           7.6226    1.9547    0.0000 H       1  UNL1        0.0275
     77 H          10.3372    3.5783    0.0000 H       1  UNL1        0.0235
     78 H           9.7101    4.1911    0.0000 H       1  UNL1        0.0235
     79 H           9.0973    3.5640    0.0000 H       1  UNL1        0.0235
@<TRIPOS>BOND
     1     1    14    1
     2     1    73    1
     3     2     4    1
     4     2     6    1
     5     2     7    1
     6     2    15    1
     7     3     4    1
     8     3     5    1
     9     3    10    1
    10     3    16    1
    11     4    11    1
    12     4    32    1
    13     5     8    1
    14     5     9    1
    15     5    33    1
    16     6    12    1
    17     6    13    1
    18     6    22    1
    19     7     9    1
    20     7    34    1
    21     7    35    1
    22     8    14    1
    23     8    23    1
    24     8    24    1
    25     9    36    1
    26     9    37    1
    27    10    17    1
    28    10    38    1
    29    10    39    1
    30    11    19    1
    31    11    40    1
    32    11    41    1
    33    12    19    2
    34    12    21    1
    35    13    20    1
    36    13    42    1
    37    13    43    1
    38    14    17    1
    39    14    44    1
    40    15    45    1
    41    15    46    1
    42    15    47    1
    43    16    48    1
    44    16    49    1
    45    16    50    1
    46    17    51    1
    47    17    52    1
    48    18    20    1
    49    18    21    1
    50    18    25    1
    51    18    27    1
    52    19    53    1
    53    20    54    1
    54    20    55    1
    55    21    26    2
    56    22    56    1
    57    22    57    1
    58    22    58    1
    59    23    59    1
    60    23    60    1
    61    23    61    1
    62    24    62    1
    63    24    63    1
    64    24    64    1
    65    25    29    1
    66    25    65    1
    67    25    66    1
    68    26    28    1
    69    26    30    1
    70    27    67    1
    71    27    68    1
    72    27    69    1
    73    28    29    1
    74    28    31    1
    75    28    70    1
    76    29    71    1
    77    29    72    1
    78    30    74    1
    79    30    75    1
    80    30    76    1
    81    31    77    1
    82    31    78    1
    83    31    79    1
