@<TRIPOS>MOLECULE
IMPHY016353
 27 28 0 0 0
SMALL
GASTEIGER

@<TRIPOS>ATOM
      1 O           3.7320    0.0600    0.0000 O.3     1  UNL1       -0.4873
      2 O           2.0000   -2.9400    0.0000 O.3     1  UNL1       -0.5066
      3 C           4.5981    1.5600    0.0000 C.ar    1  UNL1       -0.0104
      4 C           4.5981    0.5600    0.0000 C.3     1  UNL1        0.1146
      5 C           3.7320   -0.9400    0.0000 C.ar    1  UNL1        0.1244
      6 C           5.4641    2.0600    0.0000 C.ar    1  UNL1       -0.0554
      7 C           3.7320    2.0600    0.0000 C.ar    1  UNL1       -0.0554
      8 C           2.8660   -1.4400    0.0000 C.ar    1  UNL1        0.0216
      9 C           4.5981   -1.4400    0.0000 C.ar    1  UNL1       -0.0197
     10 C           5.4641    3.0600    0.0000 C.ar    1  UNL1       -0.0614
     11 C           3.7320    3.0600    0.0000 C.ar    1  UNL1       -0.0614
     12 C           2.8660   -2.4400    0.0000 C.ar    1  UNL1        0.1203
     13 C           4.5981    3.5600    0.0000 C.ar    1  UNL1       -0.0617
     14 C           4.5981   -2.4400    0.0000 C.ar    1  UNL1       -0.0549
     15 C           3.7320   -2.9400    0.0000 C.ar    1  UNL1       -0.0199
     16 H           4.8101   -0.0226    0.0000 H       1  UNL1        0.0748
     17 H           5.2087    0.6677    0.0000 H       1  UNL1        0.0748
     18 H           6.0010    1.7500    0.0000 H       1  UNL1        0.0621
     19 H           3.1951    1.7500    0.0000 H       1  UNL1        0.0621
     20 H           2.3291   -1.1300    0.0000 H       1  UNL1        0.0691
     21 H           5.1350   -1.1300    0.0000 H       1  UNL1        0.0654
     22 H           6.0010    3.3700    0.0000 H       1  UNL1        0.0618
     23 H           3.1951    3.3700    0.0000 H       1  UNL1        0.0618
     24 H           4.5981    4.1800    0.0000 H       1  UNL1        0.0618
     25 H           5.1350   -2.7500    0.0000 H       1  UNL1        0.0620
     26 H           3.7320   -3.5600    0.0000 H       1  UNL1        0.0654
     27 H           2.0000   -3.5600    0.0000 H       1  UNL1        0.2921
@<TRIPOS>BOND
     1     1     4    1
     2     1     5    1
     3     2    12    1
     4     2    27    1
     5     3     4    1
     6     3     6   ar
     7     3     7   ar
     8     4    16    1
     9     4    17    1
    10     5     8   ar
    11     5     9   ar
    12     6    10   ar
    13     6    18    1
    14     7    11   ar
    15     7    19    1
    16     8    12   ar
    17     8    20    1
    18     9    14   ar
    19     9    21    1
    20    10    13   ar
    21    10    22    1
    22    11    13   ar
    23    11    23    1
    24    12    15   ar
    25    13    24    1
    26    14    15   ar
    27    14    25    1
    28    15    26    1
