@<TRIPOS>MOLECULE
IMPHY007854
 42 45 0 0 0
SMALL
GASTEIGER

@<TRIPOS>ATOM
      1 O           4.5841   -0.8787    0.0000 O.3     1  UNL1       -0.4791
      2 O           7.2342    0.6698    0.0000 O.2     1  UNL1       -0.4538
      3 O           4.6361    2.1698    0.0000 O.2     1  UNL1       -0.2865
      4 O           5.4803    3.7012    0.0000 O.3     1  UNL1       -0.5058
      5 O           6.4213   -4.0269    0.0000 O.3     1  UNL1       -0.5066
      6 O           9.0201    3.7149    0.0000 O.3     1  UNL1       -0.5065
      7 C           4.5921    0.1629    0.0000 C.3     1  UNL1        0.1507
      8 C           5.5021    0.6698    0.0000 C.ar    1  UNL1        0.0869
      9 C           6.3682    0.1698    0.0000 C.ar    1  UNL1        0.1498
     10 C           6.3842   -0.8717    0.0000 C.ar    1  UNL1        0.0597
     11 C           5.5021    1.6698    0.0000 C.ar    1  UNL1        0.2036
     12 C           5.4862   -1.3995    0.0000 C.ar    1  UNL1        0.1360
     13 C           6.3682    2.1698    0.0000 C.ar    1  UNL1        0.1059
     14 C           7.2342    1.6698    0.0000 C.ar    1  UNL1        0.1463
     15 C           3.7319    0.6729    0.0000 C.2     1  UNL1       -0.0406
     16 C           7.3361   -1.3924    0.0000 C.ar    1  UNL1       -0.0441
     17 C           5.4778   -2.4844    0.0000 C.ar    1  UNL1        0.0223
     18 C           6.3521    3.2113    0.0000 C.ar    1  UNL1        0.1347
     19 C           2.8602    0.1830    0.0000 C.2     1  UNL1       -0.0759
     20 C           8.1442    2.1766    0.0000 C.ar    1  UNL1        0.0231
     21 C           7.3529   -2.4772    0.0000 C.ar    1  UNL1       -0.0193
     22 C           6.4174   -3.0269    0.0000 C.ar    1  UNL1        0.1204
     23 C           7.2501    3.7390    0.0000 C.ar    1  UNL1        0.0223
     24 C           8.1522    3.2182    0.0000 C.ar    1  UNL1        0.1239
     25 C           2.0000    0.6929    0.0000 C.3     1  UNL1       -0.0439
     26 C           2.8486   -0.8170    0.0000 C.3     1  UNL1       -0.0439
     27 H           4.0522   -0.1419    0.0000 H       1  UNL1        0.0833
     28 H           3.7391    1.2929    0.0000 H       1  UNL1        0.0611
     29 H           7.8670   -1.0721    0.0000 H       1  UNL1        0.0627
     30 H           4.9397   -2.7924    0.0000 H       1  UNL1        0.0691
     31 H           8.6775    1.8604    0.0000 H       1  UNL1        0.0691
     32 H           7.8934   -2.7810    0.0000 H       1  UNL1        0.0654
     33 H           7.2477    4.3590    0.0000 H       1  UNL1        0.0691
     34 H           2.2287   -0.8098    0.0000 H       1  UNL1        0.0274
     35 H           2.8414   -1.4369    0.0000 H       1  UNL1        0.0274
     36 H           2.3162    1.2262    0.0000 H       1  UNL1        0.0274
     37 H           1.4667    1.0091    0.0000 H       1  UNL1        0.0274
     38 H           1.6838    0.1596    0.0000 H       1  UNL1        0.0274
     39 H           3.4686   -0.8241    0.0000 H       1  UNL1        0.0274
     40 H           5.4732    4.3212    0.0000 H       1  UNL1        0.2922
     41 H           6.9594   -4.3349    0.0000 H       1  UNL1        0.2921
     42 H           9.0225    4.3349    0.0000 H       1  UNL1        0.2921
@<TRIPOS>BOND
     1     1     7    1
     2     1    12    1
     3     2     9   ar
     4     2    14   ar
     5     3    11    2
     6     4    18    1
     7     4    40    1
     8     5    22    1
     9     5    41    1
    10     6    24    1
    11     6    42    1
    12     7     8    1
    13     7    15    1
    14     7    27    1
    15     8     9   ar
    16     8    11   ar
    17     9    10    1
    18    10    12   ar
    19    10    16   ar
    20    11    13   ar
    21    12    17   ar
    22    13    14   ar
    23    13    18   ar
    24    14    20   ar
    25    15    19    2
    26    15    28    1
    27    16    21   ar
    28    16    29    1
    29    17    22   ar
    30    17    30    1
    31    18    23   ar
    32    19    25    1
    33    19    26    1
    34    20    24   ar
    35    20    31    1
    36    21    22   ar
    37    21    32    1
    38    23    24   ar
    39    23    33    1
    40    25    36    1
    41    25    37    1
    42    25    38    1
    43    26    34    1
    44    26    35    1
    45    26    39    1
