@<TRIPOS>MOLECULE
IMPHY003163
 21 22 0 0 0
SMALL
GASTEIGER

@<TRIPOS>ATOM
      1 O           6.3981   -0.0208    0.0000 O.3     1  UNL1       -0.4608
      2 O           5.4804   -1.5346    0.0000 O.2     1  UNL1       -0.2449
      3 N           2.8660    0.0000    0.0000 N.ar    1  UNL1       -0.2593
      4 C           5.4920    1.5346    0.0000 C.3     1  UNL1        0.0076
      5 C           4.5981    1.0000    0.0000 C.ar    1  UNL1       -0.0270
      6 C           4.5981    0.0000    0.0000 C.ar    1  UNL1        0.0803
      7 C           6.3981    1.0208    0.0000 C.3     1  UNL1        0.0968
      8 C           3.7320    1.5000    0.0000 C.ar    1  UNL1       -0.0366
      9 C           5.4920   -0.5347    0.0000 C.2     1  UNL1        0.3409
     10 C           2.8660    1.0000    0.0000 C.ar    1  UNL1        0.0385
     11 C           3.7320   -0.5000    0.0000 C.ar    1  UNL1        0.0421
     12 C           2.0000    1.5000    0.0000 C.3     1  UNL1       -0.0224
     13 H           5.8856    2.0136    0.0000 H       1  UNL1        0.0346
     14 H           5.0874    2.0044    0.0000 H       1  UNL1        0.0346
     15 H           7.0089    0.9147    0.0000 H       1  UNL1        0.0701
     16 H           6.6071    1.6045    0.0000 H       1  UNL1        0.0701
     17 H           3.7320    2.1200    0.0000 H       1  UNL1        0.0638
     18 H           3.7320   -1.1200    0.0000 H       1  UNL1        0.0838
     19 H           2.3100    2.0369    0.0000 H       1  UNL1        0.0292
     20 H           1.4631    1.8100    0.0000 H       1  UNL1        0.0292
     21 H           1.6900    0.9630    0.0000 H       1  UNL1        0.0292
@<TRIPOS>BOND
     1     1     7    1
     2     1     9    1
     3     2     9    2
     4     3    10   ar
     5     3    11   ar
     6     4     5    1
     7     4     7    1
     8     4    13    1
     9     4    14    1
    10     5     6   ar
    11     5     8   ar
    12     6     9    1
    13     6    11   ar
    14     7    15    1
    15     7    16    1
    16     8    10   ar
    17     8    17    1
    18    10    12    1
    19    11    18    1
    20    12    19    1
    21    12    20    1
    22    12    21    1
