@<TRIPOS>MOLECULE
IMPHY016513
 54 53 0 0 0
SMALL
GASTEIGER

@<TRIPOS>ATOM
      1 O          13.2583    0.2500    0.0000 O.3     1  UNL1       -0.4567
      2 O          14.1244   -1.2500    0.0000 O.2     1  UNL1       -0.2376
      3 O          15.8564   -0.2500    0.0000 O.3     1  UNL1       -0.4525
      4 O          14.9904    1.2500    0.0000 O.2     1  UNL1       -0.2376
      5 C           7.1962   -0.2500    0.0000 C.3     1  UNL1       -0.0531
      6 C           8.0622    0.2500    0.0000 C.3     1  UNL1       -0.0531
      7 C           6.3301    0.2500    0.0000 C.3     1  UNL1       -0.0531
      8 C           8.9282   -0.2500    0.0000 C.3     1  UNL1       -0.0531
      9 C           5.4641   -0.2500    0.0000 C.3     1  UNL1       -0.0531
     10 C           9.7942    0.2500    0.0000 C.3     1  UNL1       -0.0530
     11 C           4.5981    0.2500    0.0000 C.3     1  UNL1       -0.0531
     12 C          10.6603   -0.2500    0.0000 C.3     1  UNL1       -0.0500
     13 C           3.7320   -0.2500    0.0000 C.3     1  UNL1       -0.0533
     14 C          11.5263    0.2500    0.0000 C.3     1  UNL1       -0.0185
     15 C           2.8660    0.2500    0.0000 C.3     1  UNL1       -0.0559
     16 C          12.3923   -0.2500    0.0000 C.3     1  UNL1        0.0930
     17 C           2.0000   -0.2500    0.0000 C.3     1  UNL1       -0.0653
     18 C          14.1244   -0.2500    0.0000 C.2     1  UNL1        0.4173
     19 C          14.9904    0.2500    0.0000 C.2     1  UNL1        0.4176
     20 C          16.7224    0.2500    0.0000 C.3     1  UNL1        0.1110
     21 C          17.5885   -0.2500    0.0000 C.2     1  UNL1       -0.0541
     22 C          18.4545    0.2500    0.0000 C.2     1  UNL1       -0.0995
     23 H           6.7976   -0.7249    0.0000 H       1  UNL1        0.0265
     24 H           7.5947   -0.7249    0.0000 H       1  UNL1        0.0265
     25 H           8.4607    0.7249    0.0000 H       1  UNL1        0.0265
     26 H           7.6636    0.7249    0.0000 H       1  UNL1        0.0265
     27 H           6.7287    0.7249    0.0000 H       1  UNL1        0.0265
     28 H           5.9316    0.7249    0.0000 H       1  UNL1        0.0265
     29 H           8.5297   -0.7249    0.0000 H       1  UNL1        0.0265
     30 H           9.3267   -0.7249    0.0000 H       1  UNL1        0.0265
     31 H           5.0656   -0.7249    0.0000 H       1  UNL1        0.0265
     32 H           5.8626   -0.7249    0.0000 H       1  UNL1        0.0265
     33 H          10.1928    0.7249    0.0000 H       1  UNL1        0.0265
     34 H           9.3957    0.7249    0.0000 H       1  UNL1        0.0265
     35 H           4.9966    0.7249    0.0000 H       1  UNL1        0.0265
     36 H           4.1996    0.7249    0.0000 H       1  UNL1        0.0265
     37 H          10.2617   -0.7249    0.0000 H       1  UNL1        0.0266
     38 H          11.0588   -0.7249    0.0000 H       1  UNL1        0.0266
     39 H           3.3335   -0.7249    0.0000 H       1  UNL1        0.0265
     40 H           4.1306   -0.7249    0.0000 H       1  UNL1        0.0265
     41 H          11.9248    0.7249    0.0000 H       1  UNL1        0.0298
     42 H          11.1278    0.7249    0.0000 H       1  UNL1        0.0298
     43 H           3.2646    0.7249    0.0000 H       1  UNL1        0.0263
     44 H           2.4675    0.7249    0.0000 H       1  UNL1        0.0263
     45 H          11.9938   -0.7249    0.0000 H       1  UNL1        0.0697
     46 H          12.7908   -0.7249    0.0000 H       1  UNL1        0.0697
     47 H           1.6900    0.2869    0.0000 H       1  UNL1        0.0230
     48 H           1.4631   -0.5600    0.0000 H       1  UNL1        0.0230
     49 H           2.3100   -0.7869    0.0000 H       1  UNL1        0.0230
     50 H          17.1210    0.7249    0.0000 H       1  UNL1        0.0743
     51 H          16.3239    0.7249    0.0000 H       1  UNL1        0.0743
     52 H          17.5885   -0.8700    0.0000 H       1  UNL1        0.0600
     53 H          18.9914   -0.0600    0.0000 H       1  UNL1        0.0533
     54 H          18.4545    0.8700    0.0000 H       1  UNL1        0.0533
@<TRIPOS>BOND
     1     1    16    1
     2     1    18    1
     3     2    18    2
     4     3    19    1
     5     3    20    1
     6     4    19    2
     7     5     6    1
     8     5     7    1
     9     5    23    1
    10     5    24    1
    11     6     8    1
    12     6    25    1
    13     6    26    1
    14     7     9    1
    15     7    27    1
    16     7    28    1
    17     8    10    1
    18     8    29    1
    19     8    30    1
    20     9    11    1
    21     9    31    1
    22     9    32    1
    23    10    12    1
    24    10    33    1
    25    10    34    1
    26    11    13    1
    27    11    35    1
    28    11    36    1
    29    12    14    1
    30    12    37    1
    31    12    38    1
    32    13    15    1
    33    13    39    1
    34    13    40    1
    35    14    16    1
    36    14    41    1
    37    14    42    1
    38    15    17    1
    39    15    43    1
    40    15    44    1
    41    16    45    1
    42    16    46    1
    43    17    47    1
    44    17    48    1
    45    17    49    1
    46    18    19    1
    47    20    21    1
    48    20    50    1
    49    20    51    1
    50    21    22    2
    51    21    52    1
    52    22    53    1
    53    22    54    1
