@<TRIPOS>MOLECULE
IMPHY000448
 105 106 0 0 0
SMALL
GASTEIGER

@<TRIPOS>ATOM
      1 O           7.7331    3.9050    0.0000 O.3     1  UNL1       -0.3405
      2 O           4.2690    2.9050    0.0000 O.3     1  UNL1       -0.3405
      3 O           6.0010    2.9050    0.0000 O.3     1  UNL1       -0.3460
      4 O           9.4651    3.9050    0.0000 O.3     1  UNL1       -0.3460
      5 O           6.0010    5.9050    0.0000 O.3     1  UNL1       -0.3865
      6 O           7.7331    6.9050    0.0000 O.3     1  UNL1       -0.3864
      7 O           9.4651    5.9050    0.0000 O.3     1  UNL1       -0.3841
      8 O           6.0010    0.9050    0.0000 O.3     1  UNL1       -0.3841
      9 O           4.2690   -0.0950    0.0000 O.3     1  UNL1       -0.3864
     10 O           2.5369    0.9050    0.0000 O.3     1  UNL1       -0.3865
     11 O           2.5369    3.9050    0.0000 O.3     1  UNL1       -0.3924
     12 O          11.1972    2.9050    0.0000 O.3     1  UNL1       -0.3861
     13 O          11.1972    0.9050    0.0000 O.3     1  UNL1       -0.4619
     14 O          10.3312   -0.5950    0.0000 O.2     1  UNL1       -0.2509
     15 C           6.8671    4.4050    0.0000 C.3     1  UNL1        0.1134
     16 C           6.8671    5.4050    0.0000 C.3     1  UNL1        0.1119
     17 C           7.7331    5.9050    0.0000 C.3     1  UNL1        0.1141
     18 C           8.5991    5.4050    0.0000 C.3     1  UNL1        0.1341
     19 C           5.1350    1.4050    0.0000 C.3     1  UNL1        0.1341
     20 C           5.1350    2.4050    0.0000 C.3     1  UNL1        0.1880
     21 C           4.2690    0.9050    0.0000 C.3     1  UNL1        0.1141
     22 C           3.4030    1.4050    0.0000 C.3     1  UNL1        0.1119
     23 C           8.5991    4.4050    0.0000 C.3     1  UNL1        0.1880
     24 C           3.4030    2.4050    0.0000 C.3     1  UNL1        0.1130
     25 C           6.0010    3.9050    0.0000 C.3     1  UNL1        0.0796
     26 C           2.5369    2.9050    0.0000 C.3     1  UNL1        0.0730
     27 C           9.4651    2.9050    0.0000 C.3     1  UNL1        0.0799
     28 C          10.3312    2.4050    0.0000 C.3     1  UNL1        0.1125
     29 C          10.3312    1.4050    0.0000 C.3     1  UNL1        0.1204
     30 C          12.9292   -2.0950    0.0000 C.3     1  UNL1       -0.0526
     31 C          12.0632   -1.5950    0.0000 C.3     1  UNL1       -0.0430
     32 C          12.9292   -3.0950    0.0000 C.3     1  UNL1       -0.0530
     33 C          12.0632   -0.5950    0.0000 C.3     1  UNL1        0.0449
     34 C          13.7953   -3.5950    0.0000 C.3     1  UNL1       -0.0528
     35 C          11.1972   -0.0950    0.0000 C.2     1  UNL1        0.3072
     36 C          13.7953   -4.5950    0.0000 C.3     1  UNL1       -0.0496
     37 C          14.6613   -5.0950    0.0000 C.3     1  UNL1       -0.0348
     38 C          14.6613   -6.0950    0.0000 C.2     1  UNL1       -0.0876
     39 C          15.5273   -6.5950    0.0000 C.2     1  UNL1       -0.0842
     40 C          16.3933   -6.0950    0.0000 C.3     1  UNL1       -0.0165
     41 C          18.9914   -4.5950    0.0000 C.3     1  UNL1       -0.0496
     42 C          18.9914   -3.5950    0.0000 C.3     1  UNL1       -0.0530
     43 C          18.1254   -5.0950    0.0000 C.3     1  UNL1       -0.0348
     44 C          19.8574   -3.0950    0.0000 C.3     1  UNL1       -0.0559
     45 C          17.2594   -6.5950    0.0000 C.2     1  UNL1       -0.0842
     46 C          18.1254   -6.0950    0.0000 C.2     1  UNL1       -0.0876
     47 C          19.8574   -2.0950    0.0000 C.3     1  UNL1       -0.0653
     48 H           6.8671    3.7850    0.0000 H       1  UNL1        0.0647
     49 H           6.3301    5.0950    0.0000 H       1  UNL1        0.0647
     50 H           7.1962    6.2150    0.0000 H       1  UNL1        0.0648
     51 H           8.5991    6.0250    0.0000 H       1  UNL1        0.0671
     52 H           5.1350    0.7850    0.0000 H       1  UNL1        0.0671
     53 H           5.1350    3.0250    0.0000 H       1  UNL1        0.0937
     54 H           3.7320    0.5950    0.0000 H       1  UNL1        0.0648
     55 H           2.8660    1.7150    0.0000 H       1  UNL1        0.0647
     56 H           8.5991    3.7850    0.0000 H       1  UNL1        0.0937
     57 H           3.4030    3.0250    0.0000 H       1  UNL1        0.0647
     58 H           5.7890    4.4876    0.0000 H       1  UNL1        0.0587
     59 H           5.3905    3.7973    0.0000 H       1  UNL1        0.0587
     60 H           1.9264    3.0127    0.0000 H       1  UNL1        0.0584
     61 H           2.3249    2.3224    0.0000 H       1  UNL1        0.0584
     62 H           6.0010    6.5250    0.0000 H       1  UNL1        0.2100
     63 H           8.2700    7.2150    0.0000 H       1  UNL1        0.2100
     64 H          10.0021    5.5950    0.0000 H       1  UNL1        0.2101
     65 H           6.5380    1.2150    0.0000 H       1  UNL1        0.2101
     66 H           3.7320   -0.4050    0.0000 H       1  UNL1        0.2100
     67 H           2.0000    1.2150    0.0000 H       1  UNL1        0.2100
     68 H           8.8546    3.0127    0.0000 H       1  UNL1        0.0588
     69 H           9.2531    2.3224    0.0000 H       1  UNL1        0.0588
     70 H          10.3312    3.0250    0.0000 H       1  UNL1        0.0650
     71 H           2.0000    4.2150    0.0000 H       1  UNL1        0.2095
     72 H           9.7206    1.5127    0.0000 H       1  UNL1        0.0724
     73 H          10.1191    0.8224    0.0000 H       1  UNL1        0.0724
     74 H          11.7341    2.5950    0.0000 H       1  UNL1        0.2100
     75 H          13.5398   -2.2027    0.0000 H       1  UNL1        0.0265
     76 H          13.1413   -1.5124    0.0000 H       1  UNL1        0.0265
     77 H          11.4526   -1.4873    0.0000 H       1  UNL1        0.0270
     78 H          11.8512   -2.1776    0.0000 H       1  UNL1        0.0270
     79 H          12.3187   -2.9873    0.0000 H       1  UNL1        0.0265
     80 H          12.7172   -3.6776    0.0000 H       1  UNL1        0.0265
     81 H          12.6738   -0.7027    0.0000 H       1  UNL1        0.0377
     82 H          12.2753   -0.0124    0.0000 H       1  UNL1        0.0377
     83 H          14.4058   -3.7027    0.0000 H       1  UNL1        0.0265
     84 H          14.0073   -3.0124    0.0000 H       1  UNL1        0.0265
     85 H          13.1847   -4.4873    0.0000 H       1  UNL1        0.0268
     86 H          13.5832   -5.1776    0.0000 H       1  UNL1        0.0268
     87 H          15.2719   -5.2027    0.0000 H       1  UNL1        0.0307
     88 H          14.8733   -4.5124    0.0000 H       1  UNL1        0.0307
     89 H          14.1244   -6.4050    0.0000 H       1  UNL1        0.0569
     90 H          15.5273   -7.2150    0.0000 H       1  UNL1        0.0572
     91 H          19.2035   -5.1776    0.0000 H       1  UNL1        0.0268
     92 H          19.6020   -4.4873    0.0000 H       1  UNL1        0.0268
     93 H          16.7919   -5.6200    0.0000 H       1  UNL1        0.0350
     94 H          15.9948   -5.6200    0.0000 H       1  UNL1        0.0350
     95 H          18.7794   -3.0124    0.0000 H       1  UNL1        0.0265
     96 H          18.3808   -3.7027    0.0000 H       1  UNL1        0.0265
     97 H          17.9133   -4.5124    0.0000 H       1  UNL1        0.0307
     98 H          17.5148   -5.2027    0.0000 H       1  UNL1        0.0307
     99 H          20.0695   -3.6776    0.0000 H       1  UNL1        0.0263
    100 H          20.4680   -2.9873    0.0000 H       1  UNL1        0.0263
    101 H          17.2594   -7.2150    0.0000 H       1  UNL1        0.0572
    102 H          18.6623   -6.4050    0.0000 H       1  UNL1        0.0569
    103 H          20.4774   -2.0950    0.0000 H       1  UNL1        0.0230
    104 H          19.8574   -1.4750    0.0000 H       1  UNL1        0.0230
    105 H          19.2374   -2.0950    0.0000 H       1  UNL1        0.0230
@<TRIPOS>BOND
     1     1    15    1
     2     1    23    1
     3     2    20    1
     4     2    24    1
     5    20     3    1
     6     3    25    1
     7    23     4    1
     8     4    27    1
     9    16     5    1
    10     5    62    1
    11    17     6    1
    12     6    63    1
    13    18     7    1
    14     7    64    1
    15    19     8    1
    16     8    65    1
    17    21     9    1
    18     9    66    1
    19    22    10    1
    20    10    67    1
    21    11    26    1
    22    11    71    1
    23    28    12    1
    24    12    74    1
    25    13    29    1
    26    13    35    1
    27    14    35    2
    28    15    16    1
    29    15    25    1
    30    15    48    1
    31    16    17    1
    32    16    49    1
    33    17    18    1
    34    17    50    1
    35    18    23    1
    36    18    51    1
    37    19    20    1
    38    19    21    1
    39    19    52    1
    40    20    53    1
    41    21    22    1
    42    21    54    1
    43    22    24    1
    44    22    55    1
    45    23    56    1
    46    24    26    1
    47    24    57    1
    48    25    58    1
    49    25    59    1
    50    26    60    1
    51    26    61    1
    52    27    28    1
    53    27    68    1
    54    27    69    1
    55    28    29    1
    56    28    70    1
    57    29    72    1
    58    29    73    1
    59    30    31    1
    60    30    32    1
    61    30    75    1
    62    30    76    1
    63    31    33    1
    64    31    77    1
    65    31    78    1
    66    32    34    1
    67    32    79    1
    68    32    80    1
    69    33    35    1
    70    33    81    1
    71    33    82    1
    72    34    36    1
    73    34    83    1
    74    34    84    1
    75    36    37    1
    76    36    85    1
    77    36    86    1
    78    37    38    1
    79    37    87    1
    80    37    88    1
    81    38    39    2
    82    38    89    1
    83    39    40    1
    84    39    90    1
    85    40    45    1
    86    40    93    1
    87    40    94    1
    88    41    42    1
    89    41    43    1
    90    41    91    1
    91    41    92    1
    92    42    44    1
    93    42    95    1
    94    42    96    1
    95    43    46    1
    96    43    97    1
    97    43    98    1
    98    44    47    1
    99    44    99    1
   100    44   100    1
   101    45    46    2
   102    45   101    1
   103    46   102    1
   104    47   103    1
   105    47   104    1
   106    47   105    1
