@<TRIPOS>MOLECULE
IMPHY011290
 110 111 0 0 0
SMALL
GASTEIGER

@<TRIPOS>ATOM
      1 O          13.9253   -2.4786    0.0000 O.3     1  UNL1       -0.3683
      2 O          15.8933   -3.1779    0.0000 O.3     1  UNL1       -0.3892
      3 O          11.9573   -3.1779    0.0000 O.3     1  UNL1       -0.3892
      4 O          29.7661    1.6482    0.0000 O.3     1  UNL1       -0.4542
      5 O          29.6728   -0.1313    0.0000 O.2     1  UNL1       -0.2453
      6 C          14.7343   -1.8908    0.0000 C.3     1  UNL1        0.0850
      7 C          13.1163   -1.8908    0.0000 C.3     1  UNL1        0.0850
      8 C          14.4253   -0.9397    0.0000 C.3     1  UNL1       -0.0217
      9 C          13.4253   -0.9397    0.0000 C.3     1  UNL1       -0.0217
     10 C          15.6854   -2.1998    0.0000 C.3     1  UNL1        0.0813
     11 C          12.1652   -2.1998    0.0000 C.3     1  UNL1        0.0813
     12 C          16.4285   -1.5307    0.0000 C.3     1  UNL1       -0.0244
     13 C          11.4221   -1.5307    0.0000 C.3     1  UNL1       -0.0244
     14 C          17.3796   -1.8397    0.0000 C.3     1  UNL1       -0.0506
     15 C          10.4710   -1.8397    0.0000 C.3     1  UNL1       -0.0506
     16 C          18.1227   -1.1706    0.0000 C.3     1  UNL1       -0.0530
     17 C           9.7279   -1.1706    0.0000 C.3     1  UNL1       -0.0530
     18 C          19.0738   -1.4796    0.0000 C.3     1  UNL1       -0.0531
     19 C           8.7768   -1.4796    0.0000 C.3     1  UNL1       -0.0531
     20 C          19.8169   -0.8104    0.0000 C.3     1  UNL1       -0.0531
     21 C           8.0337   -0.8104    0.0000 C.3     1  UNL1       -0.0531
     22 C          20.7680   -1.1195    0.0000 C.3     1  UNL1       -0.0531
     23 C           7.0826   -1.1195    0.0000 C.3     1  UNL1       -0.0531
     24 C          21.5111   -0.4503    0.0000 C.3     1  UNL1       -0.0531
     25 C           6.3395   -0.4503    0.0000 C.3     1  UNL1       -0.0531
     26 C          22.4622   -0.7593    0.0000 C.3     1  UNL1       -0.0531
     27 C          23.2053   -0.0902    0.0000 C.3     1  UNL1       -0.0531
     28 C           5.3884   -0.7593    0.0000 C.3     1  UNL1       -0.0531
     29 C          24.1564   -0.3992    0.0000 C.3     1  UNL1       -0.0531
     30 C          24.8995    0.2699    0.0000 C.3     1  UNL1       -0.0530
     31 C           4.6453   -0.0902    0.0000 C.3     1  UNL1       -0.0531
     32 C          25.8506   -0.0391    0.0000 C.3     1  UNL1       -0.0528
     33 C           3.6942   -0.3992    0.0000 C.3     1  UNL1       -0.0533
     34 C          26.5937    0.6300    0.0000 C.3     1  UNL1       -0.0488
     35 C          27.5448    0.3210    0.0000 C.3     1  UNL1       -0.0211
     36 C           2.9511    0.2699    0.0000 C.3     1  UNL1       -0.0559
     37 C          28.2879    0.9901    0.0000 C.2     1  UNL1        0.0361
     38 C           2.0000   -0.0391    0.0000 C.3     1  UNL1       -0.0653
     39 C          28.1834    1.9846    0.0000 C.2     1  UNL1       -0.0343
     40 C          29.0969    2.3914    0.0000 C.3     1  UNL1        0.1195
     41 C          29.2661    0.7822    0.0000 C.2     1  UNL1        0.3355
     42 C          29.3048    3.3695    0.0000 C.3     1  UNL1       -0.0240
     43 H          14.8673   -2.7303    0.0000 H       1  UNL1        0.0622
     44 H          12.9833   -2.7303    0.0000 H       1  UNL1        0.0622
     45 H          15.0317   -0.8108    0.0000 H       1  UNL1        0.0292
     46 H          14.3605   -0.3231    0.0000 H       1  UNL1        0.0292
     47 H          13.4901   -0.3231    0.0000 H       1  UNL1        0.0292
     48 H          12.8188   -0.8108    0.0000 H       1  UNL1        0.0292
     49 H          16.2750   -2.3914    0.0000 H       1  UNL1        0.0619
     50 H          11.5756   -2.3914    0.0000 H       1  UNL1        0.0619
     51 H          16.7196   -0.9832    0.0000 H       1  UNL1        0.0291
     52 H          15.9399   -1.1490    0.0000 H       1  UNL1        0.0291
     53 H          11.9106   -1.1490    0.0000 H       1  UNL1        0.0291
     54 H          11.1310   -0.9832    0.0000 H       1  UNL1        0.0291
     55 H          17.0885   -2.3871    0.0000 H       1  UNL1        0.0266
     56 H          17.8681   -2.2214    0.0000 H       1  UNL1        0.0266
     57 H           9.9824   -2.2214    0.0000 H       1  UNL1        0.0266
     58 H          10.7621   -2.3871    0.0000 H       1  UNL1        0.0266
     59 H          18.4138   -0.6231    0.0000 H       1  UNL1        0.0265
     60 H          17.6341   -0.7888    0.0000 H       1  UNL1        0.0265
     61 H          10.2164   -0.7888    0.0000 H       1  UNL1        0.0265
     62 H           9.4368   -0.6231    0.0000 H       1  UNL1        0.0265
     63 H          16.4829   -3.3695    0.0000 H       1  UNL1        0.2099
     64 H          11.3676   -3.3695    0.0000 H       1  UNL1        0.2099
     65 H          18.7827   -2.0270    0.0000 H       1  UNL1        0.0265
     66 H          19.5623   -1.8613    0.0000 H       1  UNL1        0.0265
     67 H           8.2882   -1.8613    0.0000 H       1  UNL1        0.0265
     68 H           9.0679   -2.0270    0.0000 H       1  UNL1        0.0265
     69 H          20.1080   -0.2630    0.0000 H       1  UNL1        0.0265
     70 H          19.3283   -0.4287    0.0000 H       1  UNL1        0.0265
     71 H           8.5222   -0.4287    0.0000 H       1  UNL1        0.0265
     72 H           7.7426   -0.2630    0.0000 H       1  UNL1        0.0265
     73 H          20.4769   -1.6669    0.0000 H       1  UNL1        0.0265
     74 H          21.2565   -1.5012    0.0000 H       1  UNL1        0.0265
     75 H           6.5940   -1.5012    0.0000 H       1  UNL1        0.0265
     76 H           7.3737   -1.6669    0.0000 H       1  UNL1        0.0265
     77 H          21.8022    0.0971    0.0000 H       1  UNL1        0.0265
     78 H          21.0225   -0.0686    0.0000 H       1  UNL1        0.0265
     79 H          22.1711   -1.3068    0.0000 H       1  UNL1        0.0265
     80 H          22.9507   -1.1410    0.0000 H       1  UNL1        0.0265
     81 H           6.8280   -0.0686    0.0000 H       1  UNL1        0.0265
     82 H           6.0484    0.0971    0.0000 H       1  UNL1        0.0265
     83 H          23.4964    0.4572    0.0000 H       1  UNL1        0.0265
     84 H          22.7167    0.2915    0.0000 H       1  UNL1        0.0265
     85 H           4.8998   -1.1410    0.0000 H       1  UNL1        0.0265
     86 H           5.6795   -1.3068    0.0000 H       1  UNL1        0.0265
     87 H          23.8653   -0.9467    0.0000 H       1  UNL1        0.0265
     88 H          24.6449   -0.7809    0.0000 H       1  UNL1        0.0265
     89 H          25.1906    0.8173    0.0000 H       1  UNL1        0.0265
     90 H          24.4109    0.6516    0.0000 H       1  UNL1        0.0265
     91 H           5.1338    0.2915    0.0000 H       1  UNL1        0.0265
     92 H           4.3542    0.4572    0.0000 H       1  UNL1        0.0265
     93 H          25.5595   -0.5865    0.0000 H       1  UNL1        0.0265
     94 H          26.3391   -0.4208    0.0000 H       1  UNL1        0.0265
     95 H           3.2056   -0.7809    0.0000 H       1  UNL1        0.0265
     96 H           3.9853   -0.9467    0.0000 H       1  UNL1        0.0265
     97 H          26.8848    1.1774    0.0000 H       1  UNL1        0.0268
     98 H          26.1051    1.0117    0.0000 H       1  UNL1        0.0268
     99 H          27.2537   -0.2264    0.0000 H       1  UNL1        0.0315
    100 H          28.0333   -0.0607    0.0000 H       1  UNL1        0.0315
    101 H           3.4396    0.6516    0.0000 H       1  UNL1        0.0263
    102 H           2.6600    0.8173    0.0000 H       1  UNL1        0.0263
    103 H           1.8084    0.5505    0.0000 H       1  UNL1        0.0230
    104 H           1.4103   -0.2307    0.0000 H       1  UNL1        0.0230
    105 H           2.1916   -0.6288    0.0000 H       1  UNL1        0.0230
    106 H          27.6464    2.2946    0.0000 H       1  UNL1        0.0613
    107 H          29.6958    2.5519    0.0000 H       1  UNL1        0.0777
    108 H          29.9113    3.2406    0.0000 H       1  UNL1        0.0268
    109 H          29.4337    3.9760    0.0000 H       1  UNL1        0.0268
    110 H          28.6984    3.4984    0.0000 H       1  UNL1        0.0268
@<TRIPOS>BOND
     1     1     6    1
     2     1     7    1
     3    10     2    1
     4     2    63    1
     5    11     3    1
     6     3    64    1
     7     4    40    1
     8     4    41    1
     9     5    41    2
    10     6     8    1
    11     6    10    1
    12     6    43    1
    13     7     9    1
    14     7    11    1
    15     7    44    1
    16     8     9    1
    17     8    45    1
    18     8    46    1
    19     9    47    1
    20     9    48    1
    21    10    12    1
    22    10    49    1
    23    11    13    1
    24    11    50    1
    25    12    14    1
    26    12    51    1
    27    12    52    1
    28    13    15    1
    29    13    53    1
    30    13    54    1
    31    14    16    1
    32    14    55    1
    33    14    56    1
    34    15    17    1
    35    15    57    1
    36    15    58    1
    37    16    18    1
    38    16    59    1
    39    16    60    1
    40    17    19    1
    41    17    61    1
    42    17    62    1
    43    18    20    1
    44    18    65    1
    45    18    66    1
    46    19    21    1
    47    19    67    1
    48    19    68    1
    49    20    22    1
    50    20    69    1
    51    20    70    1
    52    21    23    1
    53    21    71    1
    54    21    72    1
    55    22    24    1
    56    22    73    1
    57    22    74    1
    58    23    25    1
    59    23    75    1
    60    23    76    1
    61    24    26    1
    62    24    77    1
    63    24    78    1
    64    25    28    1
    65    25    81    1
    66    25    82    1
    67    26    27    1
    68    26    79    1
    69    26    80    1
    70    27    29    1
    71    27    83    1
    72    27    84    1
    73    28    31    1
    74    28    85    1
    75    28    86    1
    76    29    30    1
    77    29    87    1
    78    29    88    1
    79    30    32    1
    80    30    89    1
    81    30    90    1
    82    31    33    1
    83    31    91    1
    84    31    92    1
    85    32    34    1
    86    32    93    1
    87    32    94    1
    88    33    36    1
    89    33    95    1
    90    33    96    1
    91    34    35    1
    92    34    97    1
    93    34    98    1
    94    35    37    1
    95    35    99    1
    96    35   100    1
    97    36    38    1
    98    36   101    1
    99    36   102    1
   100    37    39    2
   101    37    41    1
   102    38   103    1
   103    38   104    1
   104    38   105    1
   105    39    40    1
   106    39   106    1
   107    40    42    1
   108    40   107    1
   109    42   108    1
   110    42   109    1
   111    42   110    1
