@<TRIPOS>MOLECULE
IMPHY008476
 58 61 0 0 0
SMALL
GASTEIGER

@<TRIPOS>ATOM
      1 O           5.8207   -0.9955    0.0000 O.3     1  UNL1       -0.3879
      2 O           4.6208   -0.6594    0.0000 O.3     1  UNL1       -0.4572
      3 O           2.9303   -0.2824    0.0000 O.2     1  UNL1       -0.2449
      4 O           3.0091    3.4572    0.0000 O.3     1  UNL1       -0.4526
      5 O           4.5447    3.9392    0.0000 O.3     1  UNL1       -0.4526
      6 C           5.1881   -2.2550    0.0000 C.3     1  UNL1        0.0312
      7 C           5.1931   -3.2550    0.0000 C.3     1  UNL1       -0.0197
      8 C           6.1328   -1.9456    0.0000 C.3     1  UNL1        0.0751
      9 C           6.1408   -3.5550    0.0000 C.3     1  UNL1       -0.0443
     10 C           6.7204   -2.7474    0.0000 C.3     1  UNL1       -0.0228
     11 C           4.4032   -1.6354    0.0000 C.3     1  UNL1        0.1130
     12 C           6.9399   -1.3552    0.0000 C.3     1  UNL1       -0.0174
     13 C           4.4144   -3.8824    0.0000 C.3     1  UNL1       -0.0286
     14 C           5.1981   -4.2550    0.0000 C.3     1  UNL1       -0.0588
     15 C           3.4294   -1.8628    0.0000 C.3     1  UNL1        0.0057
     16 C           3.4384   -3.6647    0.0000 C.2     1  UNL1       -0.0844
     17 C           3.0000   -2.7660    0.0000 C.2     1  UNL1       -0.0730
     18 C           7.8548   -1.7589    0.0000 C.3     1  UNL1       -0.0600
     19 C           6.8321   -0.3610    0.0000 C.3     1  UNL1       -0.0600
     20 C           2.0000   -2.7709    0.0000 C.3     1  UNL1       -0.0437
     21 C           3.8844    0.0171    0.0000 C.2     1  UNL1        0.3396
     22 C           4.1021    0.9931    0.0000 C.ar    1  UNL1        0.0627
     23 C           3.3656    1.6696    0.0000 C.ar    1  UNL1       -0.0022
     24 C           5.0562    1.2926    0.0000 C.ar    1  UNL1       -0.0441
     25 C           3.5833    2.6456    0.0000 C.ar    1  UNL1        0.1670
     26 C           5.2738    2.2687    0.0000 C.ar    1  UNL1       -0.0154
     27 C           4.5374    2.9452    0.0000 C.ar    1  UNL1        0.1663
     28 C           3.6021    4.2550    0.0000 C.3     1  UNL1        0.2332
     29 H           5.3368   -1.4181    0.0000 H       1  UNL1        0.0370
     30 H           5.8926   -4.1232    0.0000 H       1  UNL1        0.0272
     31 H           6.6797   -3.8616    0.0000 H       1  UNL1        0.0272
     32 H           7.1833   -3.1598    0.0000 H       1  UNL1        0.0293
     33 H           7.1792   -2.3304    0.0000 H       1  UNL1        0.0293
     34 H           3.9626   -1.1992    0.0000 H       1  UNL1        0.0741
     35 H           7.4403   -0.9891    0.0000 H       1  UNL1        0.0323
     36 H           4.1482   -4.4423    0.0000 H       1  UNL1        0.0313
     37 H           4.9010   -4.2665    0.0000 H       1  UNL1        0.0313
     38 H           4.5781   -4.2581    0.0000 H       1  UNL1        0.0235
     39 H           5.2012   -4.8750    0.0000 H       1  UNL1        0.0235
     40 H           5.8181   -4.2519    0.0000 H       1  UNL1        0.0235
     41 H           3.4263   -1.2428    0.0000 H       1  UNL1        0.0346
     42 H           2.8242   -1.7279    0.0000 H       1  UNL1        0.0346
     43 H           3.0542   -4.1514    0.0000 H       1  UNL1        0.0572
     44 H           6.2340   -0.5334    0.0000 H       1  UNL1        0.2102
     45 H           7.6044   -2.3261    0.0000 H       1  UNL1        0.0233
     46 H           8.4220   -2.0093    0.0000 H       1  UNL1        0.0233
     47 H           8.1051   -1.1917    0.0000 H       1  UNL1        0.0233
     48 H           7.4485   -0.2942    0.0000 H       1  UNL1        0.0233
     49 H           6.7653    0.2554    0.0000 H       1  UNL1        0.0233
     50 H           6.2157   -0.4278    0.0000 H       1  UNL1        0.0233
     51 H           1.9969   -2.1509    0.0000 H       1  UNL1        0.0274
     52 H           1.3800   -2.7740    0.0000 H       1  UNL1        0.0274
     53 H           2.0031   -3.3909    0.0000 H       1  UNL1        0.0274
     54 H           2.7741    1.4839    0.0000 H       1  UNL1        0.0663
     55 H           5.5127    0.8732    0.0000 H       1  UNL1        0.0627
     56 H           5.8653    2.4544    0.0000 H       1  UNL1        0.0655
     57 H           3.8598    4.8189    0.0000 H       1  UNL1        0.1166
     58 H           3.0684    4.5705    0.0000 H       1  UNL1        0.1166
@<TRIPOS>BOND
     1     8     1    1
     2     1    44    1
     3    11     2    1
     4     2    21    1
     5     3    21    2
     6     4    25    1
     7     4    28    1
     8     5    27    1
     9     5    28    1
    10     6     7    1
    11     6     8    1
    12     6    11    1
    13     6    29    1
    14     7     9    1
    15     7    13    1
    16     7    14    1
    17     8    10    1
    18     8    12    1
    19     9    10    1
    20     9    30    1
    21     9    31    1
    22    10    32    1
    23    10    33    1
    24    11    15    1
    25    11    34    1
    26    12    18    1
    27    12    19    1
    28    12    35    1
    29    13    16    1
    30    13    36    1
    31    13    37    1
    32    14    38    1
    33    14    39    1
    34    14    40    1
    35    15    17    1
    36    15    41    1
    37    15    42    1
    38    16    17    2
    39    16    43    1
    40    17    20    1
    41    18    45    1
    42    18    46    1
    43    18    47    1
    44    19    48    1
    45    19    49    1
    46    19    50    1
    47    20    51    1
    48    20    52    1
    49    20    53    1
    50    21    22    1
    51    22    23   ar
    52    22    24   ar
    53    23    25   ar
    54    23    54    1
    55    24    26   ar
    56    24    55    1
    57    25    27   ar
    58    26    27   ar
    59    26    56    1
    60    28    57    1
    61    28    58    1
