@<TRIPOS>MOLECULE
IMPHY007799
 85 89 0 0 0
SMALL
GASTEIGER

@<TRIPOS>ATOM
      1 O           2.0000   -2.9702    0.0000 O.2     1  UNL1       -0.2968
      2 C           5.5301   -0.9461    0.0000 C.3     1  UNL1       -0.0194
      3 C           4.6641   -1.4461    0.0000 C.3     1  UNL1       -0.0187
      4 C           4.6638   -0.4456    0.0000 C.3     1  UNL1       -0.0401
      5 C           6.3961   -1.4461    0.0000 C.3     1  UNL1       -0.0289
      6 C           7.3062   -0.9392    0.0000 C.3     1  UNL1       -0.0231
      7 C           4.6641   -2.4461    0.0000 C.3     1  UNL1       -0.0230
      8 C           5.5141    0.0954    0.0000 C.3     1  UNL1       -0.0460
      9 C           7.3142    0.1024    0.0000 C.3     1  UNL1       -0.0233
     10 C           3.7702   -0.9114    0.0000 C.3     1  UNL1       -0.0399
     11 C           6.3961   -2.4461    0.0000 C.3     1  UNL1       -0.0489
     12 C           6.4121    0.6232    0.0000 C.3     1  UNL1       -0.0463
     13 C           5.5301   -2.9461    0.0000 C.3     1  UNL1       -0.0485
     14 C           3.7702   -2.9807    0.0000 C.3     1  UNL1        0.0267
     15 C           8.3022    0.4122    0.0000 C.3     1  UNL1       -0.0325
     16 C           8.2893   -1.2642    0.0000 C.3     1  UNL1       -0.0466
     17 C           8.9036   -0.4307    0.0000 C.3     1  UNL1       -0.0489
     18 C           2.8641   -1.4253    0.0000 C.3     1  UNL1        0.0069
     19 C           7.2984   -1.9392    0.0000 C.3     1  UNL1       -0.0588
     20 C           7.3219    1.1023    0.0000 C.3     1  UNL1       -0.0588
     21 C           2.8641   -2.4669    0.0000 C.2     1  UNL1        0.1392
     22 C           8.6202    1.3603    0.0000 C.3     1  UNL1       -0.0405
     23 C           3.2802   -3.8525    0.0000 C.3     1  UNL1       -0.0528
     24 C           4.2801   -3.8409    0.0000 C.3     1  UNL1       -0.0528
     25 C           9.6003    1.5590    0.0000 C.3     1  UNL1       -0.0494
     26 C           7.9581    2.1097    0.0000 C.3     1  UNL1       -0.0621
     27 C           9.9182    2.5070    0.0000 C.3     1  UNL1       -0.0439
     28 C          10.8983    2.7057    0.0000 C.3     1  UNL1       -0.0144
     29 C          10.6996    3.6858    0.0000 C.3     1  UNL1       -0.0561
     30 C          11.0970    1.7256    0.0000 C.3     1  UNL1       -0.0561
     31 C          11.8784    2.9044    0.0000 C.2     1  UNL1       -0.0741
     32 C          12.1964    3.8525    0.0000 C.3     1  UNL1       -0.0435
     33 C          12.5405    2.1550    0.0000 C.2     1  UNL1       -0.0992
     34 H           4.8759    0.1370    0.0000 H       1  UNL1        0.0276
     35 H           4.0532   -0.3380    0.0000 H       1  UNL1        0.0276
     36 H           7.1290   -1.8767    0.0000 H       1  UNL1        0.0312
     37 H           4.6706   -3.2960    0.0000 H       1  UNL1        0.0316
     38 H           5.2960    0.6758    0.0000 H       1  UNL1        0.0271
     39 H           4.9049   -0.0201    0.0000 H       1  UNL1        0.0271
     40 H           4.1748   -0.4416    0.0000 H       1  UNL1        0.0275
     41 H           3.3765   -0.4324    0.0000 H       1  UNL1        0.0275
     42 H           6.6082   -3.0287    0.0000 H       1  UNL1        0.0268
     43 H           7.0067   -2.3384    0.0000 H       1  UNL1        0.0268
     44 H           6.8094    1.0992    0.0000 H       1  UNL1        0.0271
     45 H           6.0111    1.0961    0.0000 H       1  UNL1        0.0271
     46 H           5.1316   -3.4210    0.0000 H       1  UNL1        0.0268
     47 H           5.9286   -3.4210    0.0000 H       1  UNL1        0.0268
     48 H           9.1429    0.5376    0.0000 H       1  UNL1        0.0309
     49 H           8.0339   -1.8292    0.0000 H       1  UNL1        0.0271
     50 H           8.8243   -1.5776    0.0000 H       1  UNL1        0.0271
     51 H           9.3613   -0.8490    0.0000 H       1  UNL1        0.0268
     52 H           9.3677   -0.0195    0.0000 H       1  UNL1        0.0268
     53 H           2.6550   -0.8416    0.0000 H       1  UNL1        0.0342
     54 H           2.2532   -1.5314    0.0000 H       1  UNL1        0.0342
     55 H           6.6785   -1.9344    0.0000 H       1  UNL1        0.0235
     56 H           7.2937   -2.5592    0.0000 H       1  UNL1        0.0235
     57 H           7.9184   -1.9440    0.0000 H       1  UNL1        0.0235
     58 H           7.9419    1.0976    0.0000 H       1  UNL1        0.0235
     59 H           7.3267    1.7223    0.0000 H       1  UNL1        0.0235
     60 H           6.7019    1.1071    0.0000 H       1  UNL1        0.0235
     61 H           8.8173    1.9481    0.0000 H       1  UNL1        0.0301
     62 H           3.7468   -4.1571    0.0000 H       1  UNL1        0.0239
     63 H           4.5963   -4.3742    0.0000 H       1  UNL1        0.0239
     64 H           4.8134   -3.5247    0.0000 H       1  UNL1        0.0239
     65 H           2.7397   -3.5487    0.0000 H       1  UNL1        0.0239
     66 H           2.9764   -4.3930    0.0000 H       1  UNL1        0.0239
     67 H           3.8207   -4.1562    0.0000 H       1  UNL1        0.0239
     68 H           9.6160    0.9392    0.0000 H       1  UNL1        0.0268
     69 H          10.2134    1.4669    0.0000 H       1  UNL1        0.0268
     70 H           8.4228    2.5202    0.0000 H       1  UNL1        0.0233
     71 H           7.5476    2.5744    0.0000 H       1  UNL1        0.0233
     72 H           7.4935    1.6992    0.0000 H       1  UNL1        0.0233
     73 H           9.9024    3.1268    0.0000 H       1  UNL1        0.0274
     74 H           9.3051    2.5991    0.0000 H       1  UNL1        0.0274
     75 H          10.4893    1.6025    0.0000 H       1  UNL1        0.0238
     76 H          11.2201    1.1180    0.0000 H       1  UNL1        0.0238
     77 H          11.7046    1.8488    0.0000 H       1  UNL1        0.0238
     78 H          11.3073    3.8090    0.0000 H       1  UNL1        0.0238
     79 H          10.5765    4.2934    0.0000 H       1  UNL1        0.0238
     80 H          10.0920    3.5626    0.0000 H       1  UNL1        0.0238
     81 H          12.7842    3.6553    0.0000 H       1  UNL1        0.0274
     82 H          12.3935    4.4403    0.0000 H       1  UNL1        0.0274
     83 H          11.6085    4.0496    0.0000 H       1  UNL1        0.0274
     84 H          12.3433    1.5671    0.0000 H       1  UNL1        0.0534
     85 H          13.1481    2.2781    0.0000 H       1  UNL1        0.0534
@<TRIPOS>BOND
     1     1    21    2
     2     2     3    1
     3     2     4    1
     4     2     5    1
     5     2     8    1
     6     3     4    1
     7     3     7    1
     8     3    10    1
     9     4    34    1
    10     4    35    1
    11     5     6    1
    12     5    11    1
    13     5    36    1
    14     6     9    1
    15     6    16    1
    16     6    19    1
    17     7    13    1
    18     7    14    1
    19     7    37    1
    20     8    12    1
    21     8    38    1
    22     8    39    1
    23     9    12    1
    24     9    15    1
    25     9    20    1
    26    10    18    1
    27    10    40    1
    28    10    41    1
    29    11    13    1
    30    11    42    1
    31    11    43    1
    32    12    44    1
    33    12    45    1
    34    13    46    1
    35    13    47    1
    36    14    21    1
    37    14    23    1
    38    14    24    1
    39    15    17    1
    40    15    22    1
    41    15    48    1
    42    16    17    1
    43    16    49    1
    44    16    50    1
    45    17    51    1
    46    17    52    1
    47    18    21    1
    48    18    53    1
    49    18    54    1
    50    19    55    1
    51    19    56    1
    52    19    57    1
    53    20    58    1
    54    20    59    1
    55    20    60    1
    56    22    25    1
    57    22    26    1
    58    22    61    1
    59    23    65    1
    60    23    66    1
    61    23    67    1
    62    24    62    1
    63    24    63    1
    64    24    64    1
    65    25    27    1
    66    25    68    1
    67    25    69    1
    68    26    70    1
    69    26    71    1
    70    26    72    1
    71    27    28    1
    72    27    73    1
    73    27    74    1
    74    28    29    1
    75    28    30    1
    76    28    31    1
    77    29    78    1
    78    29    79    1
    79    29    80    1
    80    30    75    1
    81    30    76    1
    82    30    77    1
    83    31    32    1
    84    31    33    2
    85    32    81    1
    86    32    82    1
    87    32    83    1
    88    33    84    1
    89    33    85    1
