@<TRIPOS>MOLECULE
IMPHY006540
 33 34 0 0 0
SMALL
GASTEIGER

@<TRIPOS>ATOM
      1 O           7.2241   -1.7847    0.0000 O.2     1  UNL1       -0.4220
      2 O           3.7320   -1.7500    0.0000 O.3     1  UNL1       -0.4943
      3 O           2.8660   -0.2500    0.0000 O.2     1  UNL1       -0.2872
      4 O           8.9942   -1.7742    0.0000 O.2     1  UNL1       -0.2452
      5 C           4.5981   -0.2500    0.0000 C.ar    1  UNL1        0.0640
      6 C           6.3301   -0.2500    0.0000 C.ar    1  UNL1        0.0185
      7 C           6.3301   -1.2500    0.0000 C.ar    1  UNL1        0.1426
      8 C           5.4641    0.2500    0.0000 C.ar    1  UNL1       -0.0367
      9 C           4.5981   -1.2500    0.0000 C.ar    1  UNL1        0.1344
     10 C           5.4641   -1.7500    0.0000 C.ar    1  UNL1        0.0238
     11 C           3.7320    0.2500    0.0000 C.2     1  UNL1        0.1895
     12 C           7.2241    0.2847    0.0000 C.ar    1  UNL1       -0.0443
     13 C           3.7320    1.2500    0.0000 C.2     1  UNL1       -0.0155
     14 C           2.8660    1.7500    0.0000 C.2     1  UNL1       -0.0721
     15 C           8.1301   -0.2292    0.0000 C.ar    1  UNL1        0.0236
     16 C           8.1301   -1.2708    0.0000 C.ar    1  UNL1        0.3372
     17 C           2.8660    2.7500    0.0000 C.3     1  UNL1       -0.0436
     18 C           2.0000    1.2500    0.0000 C.3     1  UNL1       -0.0436
     19 C           3.7320   -2.7500    0.0000 C.3     1  UNL1        0.0788
     20 H           5.4641    0.8700    0.0000 H       1  UNL1        0.0633
     21 H           5.4641   -2.3700    0.0000 H       1  UNL1        0.0691
     22 H           7.2169    0.9046    0.0000 H       1  UNL1        0.0627
     23 H           4.2690    1.5600    0.0000 H       1  UNL1        0.0655
     24 H           8.6659    0.0829    0.0000 H       1  UNL1        0.0689
     25 H           1.6900    1.7869    0.0000 H       1  UNL1        0.0274
     26 H           1.4631    0.9400    0.0000 H       1  UNL1        0.0274
     27 H           2.3100    0.7131    0.0000 H       1  UNL1        0.0274
     28 H           3.4860    2.7500    0.0000 H       1  UNL1        0.0274
     29 H           2.8660    3.3700    0.0000 H       1  UNL1        0.0274
     30 H           2.2460    2.7500    0.0000 H       1  UNL1        0.0274
     31 H           3.1120   -2.7500    0.0000 H       1  UNL1        0.0660
     32 H           3.7320   -3.3700    0.0000 H       1  UNL1        0.0660
     33 H           4.3520   -2.7500    0.0000 H       1  UNL1        0.0660
@<TRIPOS>BOND
     1     1     7   ar
     2     1    16   ar
     3     2     9    1
     4     2    19    1
     5     3    11    2
     6     4    16    2
     7     5     8   ar
     8     5     9   ar
     9     5    11    1
    10     6     7   ar
    11     6     8   ar
    12     6    12   ar
    13     7    10   ar
    14     8    20    1
    15     9    10   ar
    16    10    21    1
    17    11    13    1
    18    12    15   ar
    19    12    22    1
    20    13    14    2
    21    13    23    1
    22    14    17    1
    23    14    18    1
    24    15    16   ar
    25    15    24    1
    26    17    28    1
    27    17    29    1
    28    17    30    1
    29    18    25    1
    30    18    26    1
    31    18    27    1
    32    19    31    1
    33    19    32    1
    34    19    33    1
