@<TRIPOS>MOLECULE
IMPHY009550
 122 128 0 0 0
SMALL
GASTEIGER

@<TRIPOS>ATOM
      1 O           5.4835   -2.0909    0.0000 O.3     1  UNL1       -0.3689
      2 O           6.8671   -4.8115    0.0000 O.3     1  UNL1       -0.3421
      3 O           6.7325    4.0855    0.0000 O.3     1  UNL1       -0.3449
      4 O           5.1350   -4.8115    0.0000 O.3     1  UNL1       -0.3405
      5 O           5.7475    5.5102    0.0000 O.3     1  UNL1       -0.3405
      6 O           6.8671   -6.8115    0.0000 O.3     1  UNL1       -0.3841
      7 O           5.0875    2.9481    0.0000 O.3     1  UNL1       -0.3841
      8 O           5.1350   -7.8115    0.0000 O.3     1  UNL1       -0.3864
      9 O           3.2799    3.8040    0.0000 O.3     1  UNL1       -0.3864
     10 O           3.4030   -6.8115    0.0000 O.3     1  UNL1       -0.3865
     11 O           3.1174    5.7974    0.0000 O.3     1  UNL1       -0.3865
     12 O           2.5369   -5.3115    0.0000 O.3     1  UNL1       -0.3924
     13 O           5.5850    7.5036    0.0000 O.3     1  UNL1       -0.3924
     14 C           8.0899   -1.5229    0.0000 C.3     1  UNL1       -0.0234
     15 C           8.0125   -0.5259    0.0000 C.3     1  UNL1       -0.0319
     16 C           7.1104   -0.0945    0.0000 C.3     1  UNL1       -0.0297
     17 C           7.2652   -2.0885    0.0000 C.3     1  UNL1       -0.0036
     18 C           7.0138    0.9427    0.0000 C.3     1  UNL1       -0.0254
     19 C           7.8682    1.5384    0.0000 C.3     1  UNL1       -0.0279
     20 C           7.4796   -3.0456    0.0000 C.3     1  UNL1       -0.0062
     21 C           6.3631   -1.6570    0.0000 C.3     1  UNL1        0.0634
     22 C           6.2857   -0.6600    0.0000 C.3     1  UNL1       -0.0227
     23 C           8.8351   -2.1727    0.0000 C.3     1  UNL1       -0.0467
     24 C           8.8806    0.0498    0.0000 C.3     1  UNL1       -0.0491
     25 C           8.4672   -3.0904    0.0000 C.3     1  UNL1       -0.0467
     26 C           8.8079    1.0889    0.0000 C.3     1  UNL1       -0.0489
     27 C           7.7926    2.6207    0.0000 C.3     1  UNL1       -0.0052
     28 C           6.0244    1.3880    0.0000 C.3     1  UNL1       -0.0447
     29 C           6.8671   -3.8115    0.0000 C.3     1  UNL1        0.0756
     30 C           8.9147   -0.9574    0.0000 C.3     1  UNL1       -0.0590
     31 C           6.8138    3.0888    0.0000 C.3     1  UNL1        0.0672
     32 C           6.1934    0.3708    0.0000 C.3     1  UNL1       -0.0590
     33 C           5.9237    2.4684    0.0000 C.3     1  UNL1       -0.0255
     34 C           5.8863   -3.8129    0.0000 C.3     1  UNL1        0.0064
     35 C           5.2717   -3.0485    0.0000 C.3     1  UNL1        0.0800
     36 C           8.2275    3.5212    0.0000 C.3     1  UNL1       -0.0572
     37 C           8.7899    2.6943    0.0000 C.3     1  UNL1       -0.0572
     38 C           7.6489   -4.4350    0.0000 C.3     1  UNL1       -0.0354
     39 C           4.2980   -3.2763    0.0000 C.2     1  UNL1       -0.0568
     40 C           6.0010   -5.3115    0.0000 C.3     1  UNL1        0.1885
     41 C           5.8287    4.5135    0.0000 C.3     1  UNL1        0.1882
     42 C           6.0010   -6.3115    0.0000 C.3     1  UNL1        0.1341
     43 C           3.6138   -2.5469    0.0000 C.2     1  UNL1       -0.0772
     44 C           5.0062    3.9448    0.0000 C.3     1  UNL1        0.1341
     45 C           5.1350   -6.8115    0.0000 C.3     1  UNL1        0.1141
     46 C           4.2690   -5.3115    0.0000 C.3     1  UNL1        0.1130
     47 C           4.1024    4.3728    0.0000 C.3     1  UNL1        0.1141
     48 C           4.2690   -6.3115    0.0000 C.3     1  UNL1        0.1119
     49 C           4.8437    5.9382    0.0000 C.3     1  UNL1        0.1130
     50 C           4.0212    5.3695    0.0000 C.3     1  UNL1        0.1119
     51 C           2.6401   -2.7747    0.0000 C.3     1  UNL1       -0.0440
     52 C           3.9034   -1.5898    0.0000 C.3     1  UNL1       -0.0440
     53 C           3.4030   -4.8115    0.0000 C.3     1  UNL1        0.0730
     54 C           4.7624    6.9349    0.0000 C.3     1  UNL1        0.0730
     55 H           8.7765   -0.8986    0.0000 H       1  UNL1        0.0309
     56 H           7.8077    0.3916    0.0000 H       1  UNL1        0.0310
     57 H           6.6003   -2.6180    0.0000 H       1  UNL1        0.0335
     58 H           8.5711    2.0164    0.0000 H       1  UNL1        0.0312
     59 H           7.8304   -3.8198    0.0000 H       1  UNL1        0.0332
     60 H           5.6244   -1.2365    0.0000 H       1  UNL1        0.0599
     61 H           6.0292   -0.0956    0.0000 H       1  UNL1        0.0293
     62 H           5.6853   -0.8146    0.0000 H       1  UNL1        0.0293
     63 H           9.3812   -2.4662    0.0000 H       1  UNL1        0.0271
     64 H           9.1878   -1.6628    0.0000 H       1  UNL1        0.0271
     65 H           9.1298   -0.5179    0.0000 H       1  UNL1        0.0268
     66 H           9.4825    0.1983    0.0000 H       1  UNL1        0.0268
     67 H           8.3701   -3.7027    0.0000 H       1  UNL1        0.0269
     68 H           9.0649   -3.2553    0.0000 H       1  UNL1        0.0269
     69 H           9.4247    1.0257    0.0000 H       1  UNL1        0.0268
     70 H           8.9758    1.6858    0.0000 H       1  UNL1        0.0268
     71 H           5.4063    1.4370    0.0000 H       1  UNL1        0.0271
     72 H           5.8704    0.7875    0.0000 H       1  UNL1        0.0271
     73 H           9.2653   -1.4687    0.0000 H       1  UNL1        0.0235
     74 H           9.4260   -0.6068    0.0000 H       1  UNL1        0.0235
     75 H           8.5640   -0.4461    0.0000 H       1  UNL1        0.0235
     76 H           6.2529    3.3531    0.0000 H       1  UNL1        0.0602
     77 H           5.8389    0.8794    0.0000 H       1  UNL1        0.0235
     78 H           5.6848    0.0162    0.0000 H       1  UNL1        0.0235
     79 H           6.5480   -0.1378    0.0000 H       1  UNL1        0.0235
     80 H           5.6614    3.0301    0.0000 H       1  UNL1        0.0290
     81 H           5.3254    2.3060    0.0000 H       1  UNL1        0.0290
     82 H           5.3285   -4.0836    0.0000 H       1  UNL1        0.0321
     83 H           6.0256   -4.4170    0.0000 H       1  UNL1        0.0321
     84 H           4.8306   -2.6128    0.0000 H       1  UNL1        0.0641
     85 H           8.7858    3.2515    0.0000 H       1  UNL1        0.0236
     86 H           8.4972    4.0795    0.0000 H       1  UNL1        0.0236
     87 H           7.6692    3.7908    0.0000 H       1  UNL1        0.0236
     88 H           8.8355    2.0760    0.0000 H       1  UNL1        0.0236
     89 H           9.4082    2.7399    0.0000 H       1  UNL1        0.0236
     90 H           8.7443    3.3126    0.0000 H       1  UNL1        0.0236
     91 H           7.2623   -4.9198    0.0000 H       1  UNL1        0.0257
     92 H           8.1336   -4.8216    0.0000 H       1  UNL1        0.0257
     93 H           8.0355   -3.9503    0.0000 H       1  UNL1        0.0257
     94 H           4.1184   -3.8697    0.0000 H       1  UNL1        0.0597
     95 H           6.0010   -4.6915    0.0000 H       1  UNL1        0.0938
     96 H           5.8791    3.8956    0.0000 H       1  UNL1        0.0937
     97 H           6.0010   -6.9315    0.0000 H       1  UNL1        0.0671
     98 H           4.4962    3.5922    0.0000 H       1  UNL1        0.0671
     99 H           4.5981   -7.1215    0.0000 H       1  UNL1        0.0648
    100 H           4.2690   -4.6915    0.0000 H       1  UNL1        0.0647
    101 H           3.5421    4.6381    0.0000 H       1  UNL1        0.0648
    102 H           3.7320   -6.0015    0.0000 H       1  UNL1        0.0647
    103 H           5.3537    6.2908    0.0000 H       1  UNL1        0.0647
    104 H           3.9708    5.9874    0.0000 H       1  UNL1        0.0647
    105 H           2.4989   -2.1710    0.0000 H       1  UNL1        0.0274
    106 H           2.0364   -2.9159    0.0000 H       1  UNL1        0.0274
    107 H           2.7813   -3.3784    0.0000 H       1  UNL1        0.0274
    108 H           4.4969   -1.7693    0.0000 H       1  UNL1        0.0274
    109 H           4.0830   -0.9963    0.0000 H       1  UNL1        0.0274
    110 H           3.3100   -1.4102    0.0000 H       1  UNL1        0.0274
    111 H           6.8671   -7.4315    0.0000 H       1  UNL1        0.2101
    112 H           4.5775    2.5955    0.0000 H       1  UNL1        0.2101
    113 H           3.8015   -4.3366    0.0000 H       1  UNL1        0.0584
    114 H           3.0044   -4.3366    0.0000 H       1  UNL1        0.0584
    115 H           4.5037    7.4983    0.0000 H       1  UNL1        0.0584
    116 H           4.1626    6.7780    0.0000 H       1  UNL1        0.0584
    117 H           4.5981   -8.1215    0.0000 H       1  UNL1        0.2100
    118 H           2.7195    4.0694    0.0000 H       1  UNL1        0.2100
    119 H           3.4030   -7.4315    0.0000 H       1  UNL1        0.2100
    120 H           3.0670    6.4154    0.0000 H       1  UNL1        0.2100
    121 H           2.0000   -5.0015    0.0000 H       1  UNL1        0.2095
    122 H           5.5346    8.1215    0.0000 H       1  UNL1        0.2095
@<TRIPOS>BOND
     1     1    21    1
     2     1    35    1
     3    29     2    1
     4    40     2    1
     5    31     3    1
     6    41     3    1
     7     4    40    1
     8     4    46    1
     9     5    41    1
    10     5    49    1
    11    42     6    1
    12     6   111    1
    13    44     7    1
    14     7   112    1
    15    45     8    1
    16     8   117    1
    17    47     9    1
    18     9   118    1
    19    48    10    1
    20    10   119    1
    21    50    11    1
    22    11   120    1
    23    12    53    1
    24    12   121    1
    25    13    54    1
    26    13   122    1
    27    14    15    1
    28    14    17    1
    29    14    23    1
    30    14    30    1
    31    15    16    1
    32    15    24    1
    33    15    55    1
    34    16    18    1
    35    16    22    1
    36    16    56    1
    37    17    20    1
    38    17    21    1
    39    17    57    1
    40    18    19    1
    41    18    28    1
    42    18    32    1
    43    19    26    1
    44    19    27    1
    45    19    58    1
    46    20    25    1
    47    20    29    1
    48    20    59    1
    49    21    22    1
    50    21    60    1
    51    22    61    1
    52    22    62    1
    53    23    25    1
    54    23    63    1
    55    23    64    1
    56    24    26    1
    57    24    65    1
    58    24    66    1
    59    25    67    1
    60    25    68    1
    61    26    69    1
    62    26    70    1
    63    27    31    1
    64    27    36    1
    65    27    37    1
    66    28    33    1
    67    28    71    1
    68    28    72    1
    69    29    34    1
    70    29    38    1
    71    30    73    1
    72    30    74    1
    73    30    75    1
    74    31    33    1
    75    31    76    1
    76    32    77    1
    77    32    78    1
    78    32    79    1
    79    33    80    1
    80    33    81    1
    81    34    35    1
    82    34    82    1
    83    34    83    1
    84    35    39    1
    85    35    84    1
    86    36    85    1
    87    36    86    1
    88    36    87    1
    89    37    88    1
    90    37    89    1
    91    37    90    1
    92    38    91    1
    93    38    92    1
    94    38    93    1
    95    39    43    2
    96    39    94    1
    97    40    42    1
    98    40    95    1
    99    41    44    1
   100    41    96    1
   101    42    45    1
   102    42    97    1
   103    43    51    1
   104    43    52    1
   105    44    47    1
   106    44    98    1
   107    45    48    1
   108    45    99    1
   109    46    48    1
   110    46    53    1
   111    46   100    1
   112    47    50    1
   113    47   101    1
   114    48   102    1
   115    49    50    1
   116    49    54    1
   117    49   103    1
   118    50   104    1
   119    51   105    1
   120    51   106    1
   121    51   107    1
   122    52   108    1
   123    52   109    1
   124    52   110    1
   125    53   113    1
   126    53   114    1
   127    54   115    1
   128    54   116    1
