@<TRIPOS>MOLECULE
IMPHY004426
 35 34 0 0 0
SMALL
GASTEIGER

@<TRIPOS>ATOM
      1 O           2.0000   -0.2500    0.0000 O.2     1  UNL1       -0.2963
      2 C           8.9282   -0.2500    0.0000 C.3     1  UNL1       -0.0531
      3 C           8.0622    0.2500    0.0000 C.3     1  UNL1       -0.0530
      4 C           9.7942    0.2500    0.0000 C.3     1  UNL1       -0.0531
      5 C           7.1962   -0.2500    0.0000 C.3     1  UNL1       -0.0528
      6 C          10.6603   -0.2500    0.0000 C.3     1  UNL1       -0.0533
      7 C           6.3301    0.2500    0.0000 C.3     1  UNL1       -0.0496
      8 C          11.5263    0.2500    0.0000 C.3     1  UNL1       -0.0559
      9 C           5.4641   -0.2500    0.0000 C.3     1  UNL1       -0.0344
     10 C          12.3923   -0.2500    0.0000 C.3     1  UNL1       -0.0653
     11 C           4.5981    0.2500    0.0000 C.2     1  UNL1       -0.0810
     12 C           3.7320   -0.2500    0.0000 C.2     1  UNL1       -0.0264
     13 C           2.8660    0.2500    0.0000 C.2     1  UNL1        0.1428
     14 H           8.5297   -0.7249    0.0000 H       1  UNL1        0.0265
     15 H           9.3267   -0.7249    0.0000 H       1  UNL1        0.0265
     16 H           8.4607    0.7249    0.0000 H       1  UNL1        0.0265
     17 H           7.6636    0.7249    0.0000 H       1  UNL1        0.0265
     18 H          10.1928    0.7249    0.0000 H       1  UNL1        0.0265
     19 H           9.3957    0.7249    0.0000 H       1  UNL1        0.0265
     20 H           6.7976   -0.7249    0.0000 H       1  UNL1        0.0265
     21 H           7.5947   -0.7249    0.0000 H       1  UNL1        0.0265
     22 H          10.2617   -0.7249    0.0000 H       1  UNL1        0.0265
     23 H          11.0588   -0.7249    0.0000 H       1  UNL1        0.0265
     24 H           6.7287    0.7249    0.0000 H       1  UNL1        0.0268
     25 H           5.9316    0.7249    0.0000 H       1  UNL1        0.0268
     26 H          11.9248    0.7249    0.0000 H       1  UNL1        0.0263
     27 H          11.1278    0.7249    0.0000 H       1  UNL1        0.0263
     28 H           5.0656   -0.7249    0.0000 H       1  UNL1        0.0307
     29 H           5.8626   -0.7249    0.0000 H       1  UNL1        0.0307
     30 H          12.0823   -0.7869    0.0000 H       1  UNL1        0.0230
     31 H          12.9292   -0.5600    0.0000 H       1  UNL1        0.0230
     32 H          12.7023    0.2869    0.0000 H       1  UNL1        0.0230
     33 H           4.5981    0.8700    0.0000 H       1  UNL1        0.0573
     34 H           3.7320   -0.8700    0.0000 H       1  UNL1        0.0646
     35 H           2.8660    0.8700    0.0000 H       1  UNL1        0.1075
@<TRIPOS>BOND
     1     1    13    2
     2     2     3    1
     3     2     4    1
     4     2    14    1
     5     2    15    1
     6     3     5    1
     7     3    16    1
     8     3    17    1
     9     4     6    1
    10     4    18    1
    11     4    19    1
    12     5     7    1
    13     5    20    1
    14     5    21    1
    15     6     8    1
    16     6    22    1
    17     6    23    1
    18     7     9    1
    19     7    24    1
    20     7    25    1
    21     8    10    1
    22     8    26    1
    23     8    27    1
    24     9    11    1
    25     9    28    1
    26     9    29    1
    27    10    30    1
    28    10    31    1
    29    10    32    1
    30    11    12    2
    31    11    33    1
    32    12    13    1
    33    12    34    1
    34    13    35    1
