@<TRIPOS>MOLECULE
IMPHY001936
 47 47 0 0 0
SMALL
GASTEIGER

@<TRIPOS>ATOM
      1 O           2.8660   -4.2500    0.0000 O.3     1  UNL1       -0.4951
      2 C           4.5981    1.7500    0.0000 C.3     1  UNL1       -0.0006
      3 C           3.7320    1.2500    0.0000 C.3     1  UNL1       -0.0247
      4 C           5.4641    1.2500    0.0000 C.2     1  UNL1       -0.0781
      5 C           4.5981    2.7500    0.0000 C.2     1  UNL1       -0.0740
      6 C           3.7320    0.2500    0.0000 C.2     1  UNL1       -0.0826
      7 C           6.3301    1.7500    0.0000 C.2     1  UNL1       -0.0791
      8 C           3.7320    3.2500    0.0000 C.2     1  UNL1       -0.0543
      9 C           2.8660   -0.2500    0.0000 C.2     1  UNL1       -0.0585
     10 C           7.1962    1.2500    0.0000 C.3     1  UNL1       -0.0440
     11 C           6.3301    2.7500    0.0000 C.3     1  UNL1       -0.0440
     12 C           2.8660   -1.2500    0.0000 C.ar    1  UNL1       -0.0251
     13 C           2.8660    2.7500    0.0000 C.3     1  UNL1       -0.0400
     14 C           3.7320    4.2500    0.0000 C.2     1  UNL1       -0.0662
     15 C           2.0000   -1.7500    0.0000 C.ar    1  UNL1       -0.0511
     16 C           3.7320   -1.7500    0.0000 C.ar    1  UNL1       -0.0511
     17 C           2.0000   -2.7500    0.0000 C.ar    1  UNL1       -0.0194
     18 C           3.7320   -2.7500    0.0000 C.ar    1  UNL1       -0.0194
     19 C           2.8660   -3.2500    0.0000 C.ar    1  UNL1        0.1201
     20 C           2.8660    4.7500    0.0000 C.2     1  UNL1       -0.0985
     21 C           2.0000   -4.7500    0.0000 C.3     1  UNL1        0.0788
     22 H           4.5981    0.9000    0.0000 H       1  UNL1        0.0389
     23 H           3.5200    1.8326    0.0000 H       1  UNL1        0.0316
     24 H           3.1215    1.1423    0.0000 H       1  UNL1        0.0316
     25 H           5.4641    0.6300    0.0000 H       1  UNL1        0.0577
     26 H           5.1350    3.0600    0.0000 H       1  UNL1        0.0581
     27 H           4.2690   -0.0600    0.0000 H       1  UNL1        0.0572
     28 H           2.3291    0.0600    0.0000 H       1  UNL1        0.0620
     29 H           6.8862    0.7131    0.0000 H       1  UNL1        0.0274
     30 H           7.7331    0.9400    0.0000 H       1  UNL1        0.0274
     31 H           7.5062    1.7869    0.0000 H       1  UNL1        0.0274
     32 H           6.9501    2.7500    0.0000 H       1  UNL1        0.0274
     33 H           6.3301    3.3700    0.0000 H       1  UNL1        0.0274
     34 H           5.7101    2.7500    0.0000 H       1  UNL1        0.0274
     35 H           2.5560    3.2869    0.0000 H       1  UNL1        0.0277
     36 H           2.3291    2.4400    0.0000 H       1  UNL1        0.0277
     37 H           3.1760    2.2131    0.0000 H       1  UNL1        0.0277
     38 H           4.2690    4.5600    0.0000 H       1  UNL1        0.0614
     39 H           1.4631   -1.4400    0.0000 H       1  UNL1        0.0625
     40 H           4.2690   -1.4400    0.0000 H       1  UNL1        0.0625
     41 H           1.4631   -3.0600    0.0000 H       1  UNL1        0.0654
     42 H           4.2690   -3.0600    0.0000 H       1  UNL1        0.0654
     43 H           2.8660    5.3700    0.0000 H       1  UNL1        0.0535
     44 H           2.3291    4.4400    0.0000 H       1  UNL1        0.0535
     45 H           1.6900   -4.2131    0.0000 H       1  UNL1        0.0660
     46 H           1.4631   -5.0600    0.0000 H       1  UNL1        0.0660
     47 H           2.3100   -5.2869    0.0000 H       1  UNL1        0.0660
@<TRIPOS>BOND
     1     1    19    1
     2     1    21    1
     3     2     3    1
     4     2     4    1
     5     2     5    1
     6     2    22    1
     7     3     6    1
     8     3    23    1
     9     3    24    1
    10     4     7    2
    11     4    25    1
    12     5     8    2
    13     5    26    1
    14     6     9    2
    15     6    27    1
    16     7    10    1
    17     7    11    1
    18     8    13    1
    19     8    14    1
    20     9    12    1
    21     9    28    1
    22    10    29    1
    23    10    30    1
    24    10    31    1
    25    11    32    1
    26    11    33    1
    27    11    34    1
    28    12    15   ar
    29    12    16   ar
    30    13    35    1
    31    13    36    1
    32    13    37    1
    33    14    20    2
    34    14    38    1
    35    15    17   ar
    36    15    39    1
    37    16    18   ar
    38    16    40    1
    39    17    19   ar
    40    17    41    1
    41    18    19   ar
    42    18    42    1
    43    20    43    1
    44    20    44    1
    45    21    45    1
    46    21    46    1
    47    21    47    1
