@<TRIPOS>MOLECULE
IMPHY013118
 29 30 0 0 0
SMALL
GASTEIGER

@<TRIPOS>ATOM
      1 O           3.7320   -1.2450    0.0000 O.3     1  UNL1       -0.4944
      2 O           5.4804   -1.2796    0.0000 O.3     1  UNL1       -0.4944
      3 C           4.5981    0.2550    0.0000 C.ar    1  UNL1        0.0654
      4 C           4.5981    1.2550    0.0000 C.ar    1  UNL1       -0.0106
      5 C           3.7320   -0.2450    0.0000 C.ar    1  UNL1        0.1315
      6 C           2.8660    1.2550    0.0000 C.ar    1  UNL1       -0.0464
      7 C           3.7320    1.7550    0.0000 C.ar    1  UNL1       -0.0508
      8 C           5.4920   -0.2797    0.0000 C.ar    1  UNL1        0.1313
      9 C           2.8660    0.2550    0.0000 C.ar    1  UNL1       -0.0163
     10 C           5.4920    1.7896    0.0000 C.ar    1  UNL1       -0.0537
     11 C           6.3981    0.2341    0.0000 C.ar    1  UNL1       -0.0192
     12 C           6.3981    1.2758    0.0000 C.ar    1  UNL1       -0.0577
     13 C           2.0000    1.7550    0.0000 C.3     1  UNL1       -0.0396
     14 C           2.8660   -1.7450    0.0000 C.3     1  UNL1        0.0788
     15 C           6.3406   -1.7896    0.0000 C.3     1  UNL1        0.0788
     16 H           3.7320    2.3750    0.0000 H       1  UNL1        0.0626
     17 H           2.3291   -0.0550    0.0000 H       1  UNL1        0.0657
     18 H           5.4848    2.4096    0.0000 H       1  UNL1        0.0624
     19 H           6.9338   -0.0779    0.0000 H       1  UNL1        0.0654
     20 H           6.9338    1.5878    0.0000 H       1  UNL1        0.0619
     21 H           2.3100    2.2919    0.0000 H       1  UNL1        0.0278
     22 H           1.4631    2.0650    0.0000 H       1  UNL1        0.0278
     23 H           1.6900    1.2180    0.0000 H       1  UNL1        0.0278
     24 H           2.5560   -1.2081    0.0000 H       1  UNL1        0.0660
     25 H           2.3291   -2.0550    0.0000 H       1  UNL1        0.0660
     26 H           3.1760   -2.2820    0.0000 H       1  UNL1        0.0660
     27 H           6.0244   -2.3229    0.0000 H       1  UNL1        0.0660
     28 H           6.8740   -2.1058    0.0000 H       1  UNL1        0.0660
     29 H           6.6568   -1.2563    0.0000 H       1  UNL1        0.0660
@<TRIPOS>BOND
     1     1     5    1
     2     1    14    1
     3     2     8    1
     4     2    15    1
     5     3     4   ar
     6     3     5   ar
     7     3     8   ar
     8     4     7   ar
     9     4    10   ar
    10     5     9   ar
    11     6     7   ar
    12     6     9   ar
    13     6    13    1
    14     7    16    1
    15     8    11   ar
    16     9    17    1
    17    10    12   ar
    18    10    18    1
    19    11    12   ar
    20    11    19    1
    21    12    20    1
    22    13    21    1
    23    13    22    1
    24    13    23    1
    25    14    24    1
    26    14    25    1
    27    14    26    1
    28    15    27    1
    29    15    28    1
    30    15    29    1
