@<TRIPOS>MOLECULE
IMPHY001445
 17 17 0 0 0
SMALL
GASTEIGER

@<TRIPOS>ATOM
      1 S           4.2320   -2.4330    0.0000 S.3     1  UNL1       -0.1555
      2 N           2.0000    2.4330    0.0000 N.1     1  UNL1       -0.1966
      3 C           3.7320   -1.5670    0.0000 C.3     1  UNL1        0.0143
      4 C           4.7320   -1.5670    0.0000 C.3     1  UNL1        0.0058
      5 C           2.8660   -1.0670    0.0000 C.3     1  UNL1       -0.0395
      6 C           2.8660   -0.0670    0.0000 C.3     1  UNL1       -0.0392
      7 C           2.0000    0.4330    0.0000 C.3     1  UNL1        0.0348
      8 C           2.0000    1.4330    0.0000 C.1     1  UNL1        0.0625
      9 H           3.1310   -2.1680    0.0000 H       1  UNL1        0.0420
     10 H           5.3147   -1.7790    0.0000 H       1  UNL1        0.0387
     11 H           4.8397   -0.9564    0.0000 H       1  UNL1        0.0387
     12 H           2.2554   -0.9593    0.0000 H       1  UNL1        0.0276
     13 H           2.6540   -1.6496    0.0000 H       1  UNL1        0.0276
     14 H           3.4766   -0.1746    0.0000 H       1  UNL1        0.0275
     15 H           3.0781    0.5156    0.0000 H       1  UNL1        0.0275
     16 H           1.3894    0.5407    0.0000 H       1  UNL1        0.0418
     17 H           1.7880   -0.1496    0.0000 H       1  UNL1        0.0418
@<TRIPOS>BOND
     1     1     3    1
     2     1     4    1
     3     2     8    3
     4     3     4    1
     5     3     5    1
     6     3     9    1
     7     4    10    1
     8     4    11    1
     9     5     6    1
    10     5    12    1
    11     5    13    1
    12     6     7    1
    13     6    14    1
    14     6    15    1
    15     7     8    1
    16     7    16    1
    17     7    17    1
