@<TRIPOS>MOLECULE
IMPHY007592
 56 58 0 0 0
SMALL
GASTEIGER

@<TRIPOS>ATOM
      1 C           3.8000   -0.4370    0.0000 C.3     1  UNL1       -0.0257
      2 C           4.6660    0.0630    0.0000 C.3     1  UNL1       -0.0325
      3 C           3.8000   -1.4370    0.0000 C.3     1  UNL1       -0.0302
      4 C           5.5321   -0.4370    0.0000 C.3     1  UNL1       -0.0372
      5 C           2.9061   -1.9717    0.0000 C.3     1  UNL1       -0.0315
      6 C           4.6660   -1.9370    0.0000 C.3     1  UNL1       -0.0490
      7 C           2.9061    0.0976    0.0000 C.3     1  UNL1       -0.0471
      8 C           5.5321   -1.4370    0.0000 C.3     1  UNL1       -0.0496
      9 C           4.6500    1.1045    0.0000 C.3     1  UNL1       -0.0490
     10 C           6.4421    0.0698    0.0000 C.3     1  UNL1       -0.0445
     11 C           6.4501    1.1114    0.0000 C.3     1  UNL1       -0.0320
     12 C           2.0000   -1.4578    0.0000 C.3     1  UNL1       -0.0476
     13 C           5.5480    1.6322    0.0000 C.3     1  UNL1       -0.0473
     14 C           2.0000   -0.4162    0.0000 C.3     1  UNL1       -0.0521
     15 C           3.8000    0.5630    0.0000 C.3     1  UNL1       -0.0590
     16 C           2.4161   -2.8434    0.0000 C.3     1  UNL1       -0.0595
     17 C           3.4160   -2.8319    0.0000 C.3     1  UNL1       -0.0595
     18 C           6.9534    1.9755    0.0000 C.3     1  UNL1       -0.0505
     19 C           7.4501    1.1076    0.0000 C.3     1  UNL1       -0.0596
     20 C           6.4568    2.8434    0.0000 C.3     1  UNL1       -0.0648
     21 H           5.3989    0.4936    0.0000 H       1  UNL1        0.0309
     22 H           3.8066   -2.2870    0.0000 H       1  UNL1        0.0311
     23 H           6.2649   -0.8677    0.0000 H       1  UNL1        0.0304
     24 H           4.2675   -2.4120    0.0000 H       1  UNL1        0.0268
     25 H           5.0646   -2.4120    0.0000 H       1  UNL1        0.0268
     26 H           3.3107    0.5674    0.0000 H       1  UNL1        0.0271
     27 H           2.5124    0.5766    0.0000 H       1  UNL1        0.0271
     28 H           5.7441   -2.0196    0.0000 H       1  UNL1        0.0268
     29 H           6.1426   -1.3294    0.0000 H       1  UNL1        0.0268
     30 H           4.4319    1.6849    0.0000 H       1  UNL1        0.0268
     31 H           4.0408    0.9890    0.0000 H       1  UNL1        0.0268
     32 H           6.6466   -0.5155    0.0000 H       1  UNL1        0.0273
     33 H           7.0537    0.1712    0.0000 H       1  UNL1        0.0273
     34 H           1.3891   -1.3518    0.0000 H       1  UNL1        0.0271
     35 H           1.7909   -2.0415    0.0000 H       1  UNL1        0.0271
     36 H           5.9453    2.1082    0.0000 H       1  UNL1        0.0271
     37 H           5.1470    2.1051    0.0000 H       1  UNL1        0.0271
     38 H           1.7909    0.1675    0.0000 H       1  UNL1        0.0266
     39 H           1.3891   -0.5223    0.0000 H       1  UNL1        0.0266
     40 H           4.4200    0.5630    0.0000 H       1  UNL1        0.0235
     41 H           3.8000    1.1830    0.0000 H       1  UNL1        0.0235
     42 H           3.1800    0.5630    0.0000 H       1  UNL1        0.0235
     43 H           1.8756   -2.5397    0.0000 H       1  UNL1        0.0235
     44 H           2.1123   -3.3839    0.0000 H       1  UNL1        0.0235
     45 H           2.9566   -3.1472    0.0000 H       1  UNL1        0.0235
     46 H           2.8827   -3.1481    0.0000 H       1  UNL1        0.0235
     47 H           3.7322   -3.3652    0.0000 H       1  UNL1        0.0235
     48 H           3.9494   -2.5157    0.0000 H       1  UNL1        0.0235
     49 H           7.4268    1.5751    0.0000 H       1  UNL1        0.0268
     50 H           7.4299    2.3722    0.0000 H       1  UNL1        0.0268
     51 H           7.4477    0.4876    0.0000 H       1  UNL1        0.0235
     52 H           8.0701    1.1052    0.0000 H       1  UNL1        0.0235
     53 H           7.4525    1.7276    0.0000 H       1  UNL1        0.0235
     54 H           6.9949    3.1514    0.0000 H       1  UNL1        0.0230
     55 H           6.1488    3.3816    0.0000 H       1  UNL1        0.0230
     56 H           5.9186    2.5355    0.0000 H       1  UNL1        0.0230
@<TRIPOS>BOND
     1     1     2    1
     2     1     3    1
     3     1     7    1
     4     1    15    1
     5     2     4    1
     6     2     9    1
     7     2    21    1
     8     3     5    1
     9     3     6    1
    10     3    22    1
    11     4     8    1
    12     4    10    1
    13     4    23    1
    14     5    12    1
    15     5    16    1
    16     5    17    1
    17     6     8    1
    18     6    24    1
    19     6    25    1
    20     7    14    1
    21     7    26    1
    22     7    27    1
    23     8    28    1
    24     8    29    1
    25     9    13    1
    26     9    30    1
    27     9    31    1
    28    10    11    1
    29    10    32    1
    30    10    33    1
    31    11    13    1
    32    11    18    1
    33    11    19    1
    34    12    14    1
    35    12    34    1
    36    12    35    1
    37    13    36    1
    38    13    37    1
    39    14    38    1
    40    14    39    1
    41    15    40    1
    42    15    41    1
    43    15    42    1
    44    16    43    1
    45    16    44    1
    46    16    45    1
    47    17    46    1
    48    17    47    1
    49    17    48    1
    50    18    20    1
    51    18    49    1
    52    18    50    1
    53    19    51    1
    54    19    52    1
    55    19    53    1
    56    20    54    1
    57    20    55    1
    58    20    56    1
