@<TRIPOS>MOLECULE
IMPHY009020
 47 49 0 0 0
SMALL
GASTEIGER

@<TRIPOS>ATOM
      1 O           3.3021    3.2012    0.0000 O.3     1  UNL1       -0.3648
      2 O           3.0616    0.9991    0.0000 O.2     1  UNL1       -0.4896
      3 O           5.0446   -1.7960    0.0000 O.3     1  UNL1       -0.4585
      4 O           6.7679   -1.6216    0.0000 O.2     1  UNL1       -0.2511
      5 C           3.8021    1.6623    0.0000 C.3     1  UNL1        0.1495
      6 C           4.6111    2.2501    0.0000 C.3     1  UNL1        0.0341
      7 C           2.9931    2.2501    0.0000 C.3     1  UNL1        0.1278
      8 C           3.8950    0.6248    0.0000 C.3     1  UNL1       -0.0028
      9 C           4.8433    0.1938    0.0000 C.3     1  UNL1        0.0022
     10 C           5.5691    1.8412    0.0000 C.3     1  UNL1       -0.0414
     11 C           4.3021    3.2012    0.0000 C.3     1  UNL1        0.0581
     12 C           5.6860    0.8061    0.0000 C.3     1  UNL1       -0.0458
     13 C           5.4201    2.8379    0.0000 C.3     1  UNL1       -0.0537
     14 C           4.9440   -0.8011    0.0000 C.3     1  UNL1        0.1109
     15 C           2.0047    2.1436    0.0000 C.2     1  UNL1       -0.0147
     16 C           2.1840    2.8379    0.0000 C.3     1  UNL1       -0.0283
     17 C           2.0000    1.3340    0.0000 C.2     1  UNL1        0.0844
     18 C           5.9389   -0.7004    0.0000 C.3     1  UNL1       -0.0248
     19 C           3.9490   -0.9018    0.0000 C.3     1  UNL1       -0.0248
     20 C           5.9566   -2.2062    0.0000 C.2     1  UNL1        0.3045
     21 C           6.0573   -3.2012    0.0000 C.3     1  UNL1        0.0333
     22 H           3.2771    0.6760    0.0000 H       1  UNL1        0.0309
     23 H           3.7388    0.0248    0.0000 H       1  UNL1        0.0309
     24 H           5.6191   -0.1534    0.0000 H       1  UNL1        0.0340
     25 H           6.1880    1.8043    0.0000 H       1  UNL1        0.0273
     26 H           5.7113    2.4446    0.0000 H       1  UNL1        0.0273
     27 H           4.9085    3.3301    0.0000 H       1  UNL1        0.0567
     28 H           4.2373    3.8178    0.0000 H       1  UNL1        0.0567
     29 H           5.9592    0.2496    0.0000 H       1  UNL1        0.0269
     30 H           6.2810    0.9801    0.0000 H       1  UNL1        0.0269
     31 H           5.7845    2.3363    0.0000 H       1  UNL1        0.0237
     32 H           5.9217    3.2023    0.0000 H       1  UNL1        0.0237
     33 H           5.0557    3.3395    0.0000 H       1  UNL1        0.0237
     34 H           1.5446    2.5592    0.0000 H       1  UNL1        0.0632
     35 H           2.5485    3.3395    0.0000 H       1  UNL1        0.0262
     36 H           1.6824    3.2023    0.0000 H       1  UNL1        0.0262
     37 H           1.8196    2.3363    0.0000 H       1  UNL1        0.0262
     38 H           1.4989    0.9689    0.0000 H       1  UNL1        0.1021
     39 H           6.0013   -1.3172    0.0000 H       1  UNL1        0.0268
     40 H           6.5557   -0.6379    0.0000 H       1  UNL1        0.0268
     41 H           5.8764   -0.0835    0.0000 H       1  UNL1        0.0268
     42 H           3.8866   -0.2849    0.0000 H       1  UNL1        0.0268
     43 H           3.3322   -0.9642    0.0000 H       1  UNL1        0.0268
     44 H           4.0115   -1.5186    0.0000 H       1  UNL1        0.0268
     45 H           5.4405   -3.2636    0.0000 H       1  UNL1        0.0342
     46 H           6.1197   -3.8180    0.0000 H       1  UNL1        0.0342
     47 H           6.6742   -3.1387    0.0000 H       1  UNL1        0.0342
@<TRIPOS>BOND
     1     1     7    1
     2     1    11    1
     3     5     2    1
     4     2    17    1
     5     3    14    1
     6     3    20    1
     7     4    20    2
     8     5     6    1
     9     5     7    1
    10     5     8    1
    11     6    10    1
    12     6    11    1
    13     6    13    1
    14     7    15    1
    15     7    16    1
    16     8     9    1
    17     8    22    1
    18     8    23    1
    19     9    12    1
    20     9    14    1
    21     9    24    1
    22    10    12    1
    23    10    25    1
    24    10    26    1
    25    11    27    1
    26    11    28    1
    27    12    29    1
    28    12    30    1
    29    13    31    1
    30    13    32    1
    31    13    33    1
    32    14    18    1
    33    14    19    1
    34    15    17    2
    35    15    34    1
    36    16    35    1
    37    16    36    1
    38    16    37    1
    39    17    38    1
    40    18    39    1
    41    18    40    1
    42    18    41    1
    43    19    42    1
    44    19    43    1
    45    19    44    1
    46    20    21    1
    47    21    45    1
    48    21    46    1
    49    21    47    1
