@<TRIPOS>MOLECULE
IMPHY008435
 45 48 0 0 0
SMALL
GASTEIGER

@<TRIPOS>ATOM
      1 O           5.9065    2.4409    0.0000 O.3     1  UNL1       -0.4496
      2 O           7.6904    2.0665    0.0000 O.3     1  UNL1       -0.4491
      3 O           6.0942   -0.0435    0.0000 O.3     1  UNL1       -0.3702
      4 O           6.7634   -0.7866    0.0000 O.2     1  UNL1       -0.2881
      5 O           8.4155   -1.3598    0.0000 O.3     1  UNL1       -0.5055
      6 O          11.0552    0.9986    0.0000 O.3     1  UNL1       -0.5062
      7 O           2.4170    1.5366    0.0000 O.3     1  UNL1       -0.5066
      8 C           6.4033    0.9076    0.0000 C.3     1  UNL1        0.2311
      9 C           6.7123    1.8586    0.0000 C.3     1  UNL1        0.2833
     10 C           5.4092    0.9102    0.0000 C.ar    1  UNL1        0.0408
     11 C           7.0724    0.1644    0.0000 C.2     1  UNL1        0.2135
     12 C           5.1028    1.8558    0.0000 C.ar    1  UNL1        0.1352
     13 C           8.0505    0.3723    0.0000 C.ar    1  UNL1        0.1045
     14 C           8.3596    1.3234    0.0000 C.ar    1  UNL1        0.1427
     15 C           4.7276    0.1307    0.0000 C.ar    1  UNL1       -0.0482
     16 C           8.7355   -0.4124    0.0000 C.ar    1  UNL1        0.1379
     17 C           4.0936    2.0876    0.0000 C.ar    1  UNL1        0.0221
     18 C           9.7560   -0.2037    0.0000 C.ar    1  UNL1        0.0400
     19 C           9.3750    1.5556    0.0000 C.ar    1  UNL1        0.0229
     20 C          10.0779    0.7870    0.0000 C.ar    1  UNL1        0.1273
     21 C           3.7133    0.3390    0.0000 C.ar    1  UNL1       -0.0196
     22 C           3.3942    1.3241    0.0000 C.ar    1  UNL1        0.1204
     23 C          10.4223   -0.9494    0.0000 C.3     1  UNL1       -0.0023
     24 C          11.4012   -0.7453    0.0000 C.2     1  UNL1       -0.0807
     25 C          12.0675   -1.4910    0.0000 C.2     1  UNL1       -0.0793
     26 C          13.0464   -1.2868    0.0000 C.3     1  UNL1       -0.0440
     27 C          11.7548   -2.4409    0.0000 C.3     1  UNL1       -0.0440
     28 H           6.8879    2.6903    0.0000 H       1  UNL1        0.1245
     29 H           4.9255   -0.4569    0.0000 H       1  UNL1        0.0624
     30 H           5.4878   -0.1724    0.0000 H       1  UNL1        0.2115
     31 H           3.9094    2.6796    0.0000 H       1  UNL1        0.0691
     32 H           9.5597    2.1475    0.0000 H       1  UNL1        0.0691
     33 H           3.2998   -0.1230    0.0000 H       1  UNL1        0.0654
     34 H           9.8952   -1.2759    0.0000 H       1  UNL1        0.0358
     35 H          10.6523   -1.5252    0.0000 H       1  UNL1        0.0358
     36 H           8.8250   -1.8253    0.0000 H       1  UNL1        0.2922
     37 H          11.5951   -0.1564    0.0000 H       1  UNL1        0.0575
     38 H          11.2446    1.5890    0.0000 H       1  UNL1        0.2921
     39 H           2.0000    1.0778    0.0000 H       1  UNL1        0.2921
     40 H          13.1730   -1.8938    0.0000 H       1  UNL1        0.0274
     41 H          11.1659   -2.2470    0.0000 H       1  UNL1        0.0274
     42 H          11.5609   -3.0298    0.0000 H       1  UNL1        0.0274
     43 H          12.3437   -2.6347    0.0000 H       1  UNL1        0.0274
     44 H          13.6534   -1.1603    0.0000 H       1  UNL1        0.0274
     45 H          12.9199   -0.6799    0.0000 H       1  UNL1        0.0274
@<TRIPOS>BOND
     1     1     9    1
     2     1    12    1
     3     2     9    1
     4     2    14    1
     5     8     3    1
     6     3    30    1
     7     4    11    2
     8     5    16    1
     9     5    36    1
    10     6    20    1
    11     6    38    1
    12     7    22    1
    13     7    39    1
    14     8     9    1
    15     8    10    1
    16     8    11    1
    17     9    28    1
    18    10    12   ar
    19    10    15   ar
    20    11    13    1
    21    12    17   ar
    22    13    14   ar
    23    13    16   ar
    24    14    19   ar
    25    15    21   ar
    26    15    29    1
    27    16    18   ar
    28    17    22   ar
    29    17    31    1
    30    18    20   ar
    31    18    23    1
    32    19    20   ar
    33    19    32    1
    34    21    22   ar
    35    21    33    1
    36    23    24    1
    37    23    34    1
    38    23    35    1
    39    24    25    2
    40    24    37    1
    41    25    26    1
    42    25    27    1
    43    26    40    1
    44    26    44    1
    45    26    45    1
    46    27    41    1
    47    27    42    1
    48    27    43    1
