@<TRIPOS>MOLECULE
IMPHY012860
 102 106 0 0 0
SMALL
GASTEIGER

@<TRIPOS>ATOM
      1 CL          6.3978    0.1162    0.0000 Cl      1  UNL1       -0.0778
      2 O           9.9746    0.3797    0.0000 O.3     1  UNL1       -0.3608
      3 O           9.1643    1.7003    0.0000 O.3     1  UNL1       -0.4566
      4 O           8.4202   -1.7760    0.0000 O.3     1  UNL1       -0.4465
      5 O           8.3278   -4.6745    0.0000 O.3     1  UNL1       -0.3686
      6 O           7.0697   -5.0806    0.0000 O.3     1  UNL1       -0.3712
      7 O           7.0663    0.3343    0.0000 O.2     1  UNL1       -0.2751
      8 O           6.7620   -1.4057    0.0000 O.2     1  UNL1       -0.2264
      9 O          10.0303    3.2003    0.0000 O.2     1  UNL1       -0.2487
     10 O           5.8591    4.9074    0.0000 O.3     1  UNL1       -0.3727
     11 O           7.4322    2.7003    0.0000 O.2     1  UNL1       -0.2921
     12 O           7.4322    5.7003    0.0000 O.2     1  UNL1       -0.2720
     13 O           2.5351   -1.3190    0.0000 O.3     1  UNL1       -0.3709
     14 O           6.2036   -0.9425    0.0000 O.3     1  UNL1       -0.4936
     15 N           7.2285   -3.0395    0.0000 N.am    1  UNL1       -0.2504
     16 N           5.7002    1.7003    0.0000 N.am    1  UNL1       -0.2625
     17 N           8.2982    4.2003    0.0000 N.am    1  UNL1       -0.2886
     18 C           8.9728    0.4775    0.0000 C.3     1  UNL1        0.1306
     19 C           9.3723   -0.4268    0.0000 C.3     1  UNL1        0.0977
     20 C           9.4523   -1.4122    0.0000 C.3     1  UNL1        0.0226
     21 C           8.2982    1.2003    0.0000 C.3     1  UNL1        0.1423
     22 C           9.2040   -2.3691    0.0000 C.3     1  UNL1        0.1139
     23 C           8.1382   -0.0734    0.0000 C.3     1  UNL1       -0.0298
     24 C          10.4486   -1.4985    0.0000 C.3     1  UNL1       -0.0566
     25 C           8.6550   -3.1913    0.0000 C.3     1  UNL1        0.0335
     26 C           7.4322    1.7003    0.0000 C.3     1  UNL1        0.0644
     27 C           7.8663   -3.7874    0.0000 C.3     1  UNL1        0.1684
     28 C           6.9255   -4.0910    0.0000 C.3     1  UNL1        0.1223
     29 C           6.5662    1.2003    0.0000 C.2     1  UNL1        0.2238
     30 C           7.4895   -2.0919    0.0000 C.2     1  UNL1        0.4027
     31 C           9.1643    2.7003    0.0000 C.2     1  UNL1        0.3279
     32 C           8.2982    3.2003    0.0000 C.3     1  UNL1        0.1199
     33 C           5.9371   -4.0686    0.0000 C.2     1  UNL1       -0.0513
     34 C           5.7002    2.7003    0.0000 C.3     1  UNL1        0.0815
     35 C           4.8056    1.2795    0.0000 C.ar    1  UNL1        0.0589
     36 C           7.4322    3.7003    0.0000 C.3     1  UNL1       -0.0360
     37 C           5.0110   -3.7226    0.0000 C.2     1  UNL1       -0.0631
     38 C           6.5662    3.2003    0.0000 C.2     1  UNL1        0.1909
     39 C           6.5662    4.2003    0.0000 C.3     1  UNL1        0.1981
     40 C           6.2849   -5.7003    0.0000 C.3     1  UNL1        0.0374
     41 C           7.4322    4.7003    0.0000 C.2     1  UNL1        0.2550
     42 C           4.0990    0.5880    0.0000 C.ar    1  UNL1       -0.0327
     43 C           9.1643    4.7003    0.0000 C.3     1  UNL1        0.0041
     44 C           5.5333    0.6188    0.0000 C.ar    1  UNL1        0.1038
     45 C           4.2501   -3.0914    0.0000 C.2     1  UNL1       -0.0602
     46 C           3.6589   -0.2972    0.0000 C.ar    1  UNL1       -0.0095
     47 C           5.6003    3.9415    0.0000 C.3     1  UNL1       -0.0203
     48 C           3.5343   -1.2780    0.0000 C.3     1  UNL1        0.1046
     49 C           3.7389   -2.2452    0.0000 C.2     1  UNL1       -0.0399
     50 C           5.3948   -0.3543    0.0000 C.ar    1  UNL1        0.1405
     51 C           4.5117   -0.7859    0.0000 C.ar    1  UNL1       -0.0124
     52 C           2.8088   -2.6124    0.0000 C.3     1  UNL1       -0.0407
     53 C           2.0000   -0.4742    0.0000 C.3     1  UNL1        0.0377
     54 C           6.0986   -1.9370    0.0000 C.3     1  UNL1        0.0789
     55 H           9.9681   -0.5983    0.0000 H       1  UNL1        0.0630
     56 H           9.8102   -1.9185    0.0000 H       1  UNL1        0.0360
     57 H           7.9124    0.7150    0.0000 H       1  UNL1        0.0769
     58 H           9.7698   -2.6227    0.0000 H       1  UNL1        0.0739
     59 H           7.7966    0.4441    0.0000 H       1  UNL1        0.0259
     60 H           7.6208   -0.4149    0.0000 H       1  UNL1        0.0259
     61 H           8.4797   -0.5908    0.0000 H       1  UNL1        0.0259
     62 H          10.3951   -2.1162    0.0000 H       1  UNL1        0.0234
     63 H          11.0663   -1.5520    0.0000 H       1  UNL1        0.0234
     64 H          10.5021   -0.8808    0.0000 H       1  UNL1        0.0234
     65 H           8.7995   -3.7942    0.0000 H       1  UNL1        0.0346
     66 H           8.2040   -2.7659    0.0000 H       1  UNL1        0.0346
     67 H           7.8308    2.1752    0.0000 H       1  UNL1        0.0396
     68 H           7.0337    2.1752    0.0000 H       1  UNL1        0.0396
     69 H           7.4518   -4.4188    0.0000 H       1  UNL1        0.0686
     70 H           6.6232   -3.1740    0.0000 H       1  UNL1        0.1549
     71 H           8.9472   -4.7017    0.0000 H       1  UNL1        0.2121
     72 H           7.9883    3.7372    0.0000 H       1  UNL1        0.0613
     73 H           5.8199   -4.6775    0.0000 H       1  UNL1        0.0599
     74 H           5.4881    3.2829    0.0000 H       1  UNL1        0.0548
     75 H           5.0896    2.5926    0.0000 H       1  UNL1        0.0548
     76 H           7.7423    4.2373    0.0000 H       1  UNL1        0.0253
     77 H           6.8953    4.0104    0.0000 H       1  UNL1        0.0253
     78 H           7.1222    3.1634    0.0000 H       1  UNL1        0.0253
     79 H           4.7002   -4.2591    0.0000 H       1  UNL1        0.0615
     80 H           5.9007   -5.2137    0.0000 H       1  UNL1        0.0524
     81 H           5.7983   -6.0845    0.0000 H       1  UNL1        0.0524
     82 H           6.6691   -6.1869    0.0000 H       1  UNL1        0.0524
     83 H           3.5976    0.9527    0.0000 H       1  UNL1        0.0640
     84 H           9.4743    4.1634    0.0000 H       1  UNL1        0.0429
     85 H           9.7012    5.0103    0.0000 H       1  UNL1        0.0429
     86 H           8.8543    5.2372    0.0000 H       1  UNL1        0.0429
     87 H           3.7802   -3.4960    0.0000 H       1  UNL1        0.0618
     88 H           5.4398    4.5404    0.0000 H       1  UNL1        0.0266
     89 H           5.0014    3.7810    0.0000 H       1  UNL1        0.0266
     90 H           5.7607    3.3426    0.0000 H       1  UNL1        0.0266
     91 H           3.1538   -1.7675    0.0000 H       1  UNL1        0.0694
     92 H           4.4914   -1.4056    0.0000 H       1  UNL1        0.0658
     93 H           6.0196    5.5063    0.0000 H       1  UNL1        0.2114
     94 H           2.5811   -2.0357    0.0000 H       1  UNL1        0.0275
     95 H           2.2320   -2.8400    0.0000 H       1  UNL1        0.0275
     96 H           3.0364   -3.1891    0.0000 H       1  UNL1        0.0275
     97 H           2.5238   -0.1425    0.0000 H       1  UNL1        0.0524
     98 H           1.6682    0.0495    0.0000 H       1  UNL1        0.0524
     99 H           1.4762   -0.8060    0.0000 H       1  UNL1        0.0524
    100 H           5.4820   -1.8719    0.0000 H       1  UNL1        0.0660
    101 H           6.0335   -2.5535    0.0000 H       1  UNL1        0.0660
    102 H           6.7152   -2.0020    0.0000 H       1  UNL1        0.0660
@<TRIPOS>BOND
     1     1    44    1
     2     2    18    1
     3     2    19    1
     4     3    21    1
     5     3    31    1
     6     4    22    1
     7     4    30    1
     8     5    27    1
     9     5    71    1
    10     6    28    1
    11     6    40    1
    12     7    29    2
    13     8    30    2
    14     9    31    2
    15    10    39    1
    16    10    93    1
    17    11    38    2
    18    12    41    2
    19    13    48    1
    20    13    53    1
    21    14    50    1
    22    14    54    1
    23    15    27    1
    24    15    30   am
    25    15    70    1
    26    16    29   am
    27    16    34    1
    28    16    35    1
    29    17    32    1
    30    17    41   am
    31    17    43    1
    32    18    19    1
    33    18    21    1
    34    18    23    1
    35    19    20    1
    36    19    55    1
    37    20    22    1
    38    20    24    1
    39    20    56    1
    40    21    26    1
    41    21    57    1
    42    22    25    1
    43    22    58    1
    44    23    59    1
    45    23    60    1
    46    23    61    1
    47    24    62    1
    48    24    63    1
    49    24    64    1
    50    25    27    1
    51    25    65    1
    52    25    66    1
    53    26    29    1
    54    26    67    1
    55    26    68    1
    56    27    28    1
    57    28    33    1
    58    28    69    1
    59    31    32    1
    60    32    36    1
    61    32    72    1
    62    33    37    2
    63    33    73    1
    64    34    38    1
    65    34    74    1
    66    34    75    1
    67    35    42   ar
    68    35    44   ar
    69    36    76    1
    70    36    77    1
    71    36    78    1
    72    37    45    1
    73    37    79    1
    74    38    39    1
    75    39    41    1
    76    39    47    1
    77    40    80    1
    78    40    81    1
    79    40    82    1
    80    42    46   ar
    81    42    83    1
    82    43    84    1
    83    43    85    1
    84    43    86    1
    85    44    50   ar
    86    45    49    2
    87    45    87    1
    88    46    48    1
    89    46    51   ar
    90    47    88    1
    91    47    89    1
    92    47    90    1
    93    48    49    1
    94    48    91    1
    95    49    52    1
    96    50    51   ar
    97    51    92    1
    98    52    94    1
    99    52    95    1
   100    52    96    1
   101    53    97    1
   102    53    98    1
   103    53    99    1
   104    54   100    1
   105    54   101    1
   106    54   102    1
