@<TRIPOS>MOLECULE
IMPHY017227
 21 22 0 0 0
SMALL
GASTEIGER

@<TRIPOS>ATOM
      1 N           4.6783   -0.6077    0.0000 N.pl3   1  UNL1       -0.3407
      2 C           5.2619    0.1970    0.0000 C.3     1  UNL1        0.0219
      3 C           4.6783    1.0018    0.0000 C.3     1  UNL1       -0.0078
      4 C           3.7320    0.6970    0.0000 C.ar    1  UNL1       -0.0248
      5 C           3.7320   -0.3030    0.0000 C.ar    1  UNL1        0.0306
      6 C           6.2619    0.1970    0.0000 C.3     1  UNL1       -0.0464
      7 C           2.8660    1.1970    0.0000 C.ar    1  UNL1       -0.0568
      8 C           2.8660   -0.8030    0.0000 C.ar    1  UNL1       -0.0406
      9 C           2.0000    0.6970    0.0000 C.ar    1  UNL1       -0.0614
     10 C           2.0000   -0.3030    0.0000 C.ar    1  UNL1       -0.0600
     11 H           5.5436   -0.3553    0.0000 H       1  UNL1        0.0498
     12 H           5.2156    1.3110    0.0000 H       1  UNL1        0.0332
     13 H           4.4272    1.5687    0.0000 H       1  UNL1        0.0332
     14 H           4.8709   -1.1970    0.0000 H       1  UNL1        0.1464
     15 H           6.2619   -0.4230    0.0000 H       1  UNL1        0.0248
     16 H           6.8819    0.1970    0.0000 H       1  UNL1        0.0248
     17 H           6.2619    0.8170    0.0000 H       1  UNL1        0.0248
     18 H           2.8660    1.8170    0.0000 H       1  UNL1        0.0621
     19 H           2.8660   -1.4230    0.0000 H       1  UNL1        0.0636
     20 H           1.4631    1.0070    0.0000 H       1  UNL1        0.0618
     21 H           1.4631   -0.6130    0.0000 H       1  UNL1        0.0618
@<TRIPOS>BOND
     1     1     2    1
     2     1     5    1
     3     1    14    1
     4     2     3    1
     5     2     6    1
     6     2    11    1
     7     3     4    1
     8     3    12    1
     9     3    13    1
    10     4     5   ar
    11     4     7   ar
    12     5     8   ar
    13     6    15    1
    14     6    16    1
    15     6    17    1
    16     7     9   ar
    17     7    18    1
    18     8    10   ar
    19     8    19    1
    20     9    10   ar
    21     9    20    1
    22    10    21    1
