@<TRIPOS>MOLECULE
IMPHY005328
 43 45 0 0 0
SMALL
GASTEIGER

@<TRIPOS>ATOM
      1 O           2.0000   -2.0116    0.0000 O.2     1  UNL1       -0.2968
      2 O           7.2622   -1.9875    0.0000 O.2     1  UNL1       -0.2920
      3 O           6.4082    2.5818    0.0000 O.3     1  UNL1       -0.5065
      4 C           4.6641   -0.4875    0.0000 C.3     1  UNL1       -0.0018
      5 C           4.6641   -1.4875    0.0000 C.3     1  UNL1       -0.0128
      6 C           3.7702   -2.0221    0.0000 C.3     1  UNL1        0.0274
      7 C           3.7702    0.0472    0.0000 C.3     1  UNL1       -0.0366
      8 C           5.5301   -1.9875    0.0000 C.3     1  UNL1        0.0150
      9 C           5.5301    0.0125    0.0000 C.ar    1  UNL1       -0.0272
     10 C           2.8641   -0.4666    0.0000 C.3     1  UNL1        0.0072
     11 C           2.8641   -1.5083    0.0000 C.2     1  UNL1        0.1393
     12 C           4.6641    0.5125    0.0000 C.3     1  UNL1       -0.0552
     13 C           3.2802   -2.8939    0.0000 C.3     1  UNL1       -0.0528
     14 C           4.2801   -2.8823    0.0000 C.3     1  UNL1       -0.0528
     15 C           6.3961   -0.4875    0.0000 C.ar    1  UNL1        0.0216
     16 C           6.3961   -1.4875    0.0000 C.2     1  UNL1        0.1638
     17 C           5.5141    1.0540    0.0000 C.ar    1  UNL1       -0.0155
     18 C           7.3062    0.0194    0.0000 C.ar    1  UNL1       -0.0446
     19 C           6.4121    1.5818    0.0000 C.ar    1  UNL1        0.1201
     20 C           7.3142    1.0610    0.0000 C.ar    1  UNL1       -0.0083
     21 C           8.1821    1.5576    0.0000 C.3     1  UNL1       -0.0362
     22 H           4.6706   -2.3374    0.0000 H       1  UNL1        0.0323
     23 H           4.1748    0.5170    0.0000 H       1  UNL1        0.0278
     24 H           3.3765    0.5262    0.0000 H       1  UNL1        0.0278
     25 H           5.1316   -2.4624    0.0000 H       1  UNL1        0.0348
     26 H           5.9286   -2.4624    0.0000 H       1  UNL1        0.0348
     27 H           2.6550    0.1171    0.0000 H       1  UNL1        0.0342
     28 H           2.2532   -0.5727    0.0000 H       1  UNL1        0.0342
     29 H           5.2841    0.5125    0.0000 H       1  UNL1        0.0238
     30 H           4.6641    1.1325    0.0000 H       1  UNL1        0.0238
     31 H           4.0441    0.5125    0.0000 H       1  UNL1        0.0238
     32 H           2.7397   -2.5901    0.0000 H       1  UNL1        0.0239
     33 H           2.9764   -3.4344    0.0000 H       1  UNL1        0.0239
     34 H           3.8207   -3.1976    0.0000 H       1  UNL1        0.0239
     35 H           3.7468   -3.1985    0.0000 H       1  UNL1        0.0239
     36 H           4.5963   -3.4156    0.0000 H       1  UNL1        0.0239
     37 H           4.8134   -2.5661    0.0000 H       1  UNL1        0.0239
     38 H           4.9736    1.3578    0.0000 H       1  UNL1        0.0657
     39 H           7.8395   -0.2968    0.0000 H       1  UNL1        0.0628
     40 H           8.4901    1.0195    0.0000 H       1  UNL1        0.0279
     41 H           8.7203    1.8656    0.0000 H       1  UNL1        0.0279
     42 H           7.8742    2.0958    0.0000 H       1  UNL1        0.0279
     43 H           6.9440    2.8939    0.0000 H       1  UNL1        0.2921
@<TRIPOS>BOND
     1     1    11    2
     2     2    16    2
     3     3    19    1
     4     3    43    1
     5     4     5    1
     6     4     7    1
     7     4     9    1
     8     4    12    1
     9     5     6    1
    10     5     8    1
    11     5    22    1
    12     6    11    1
    13     6    13    1
    14     6    14    1
    15     7    10    1
    16     7    23    1
    17     7    24    1
    18     8    16    1
    19     8    25    1
    20     8    26    1
    21     9    15   ar
    22     9    17   ar
    23    10    11    1
    24    10    27    1
    25    10    28    1
    26    12    29    1
    27    12    30    1
    28    12    31    1
    29    13    32    1
    30    13    33    1
    31    13    34    1
    32    14    35    1
    33    14    36    1
    34    14    37    1
    35    15    16    1
    36    15    18   ar
    37    17    19   ar
    38    17    38    1
    39    18    20   ar
    40    18    39    1
    41    19    20   ar
    42    20    21    1
    43    21    40    1
    44    21    41    1
    45    21    42    1
