@<TRIPOS>MOLECULE
IMPHY001670
 41 42 0 0 0
SMALL
GASTEIGER

@<TRIPOS>ATOM
      1 O           4.2690   -0.9050    0.0000 O.3     1  UNL1       -0.3312
      2 O           2.5369   -2.9050    0.0000 O.3     1  UNL1       -0.3865
      3 O           4.2690   -3.9050    0.0000 O.3     1  UNL1       -0.3864
      4 O           6.0010   -2.9050    0.0000 O.3     1  UNL1       -0.3829
      5 O           6.0010   -0.9050    0.0000 O.3     1  UNL1       -0.4292
      6 O           2.5369    0.0950    0.0000 O.3     1  UNL1       -0.3924
      7 O           5.1350    0.5950    0.0000 O.2     1  UNL1       -0.2455
      8 O          10.3312    3.5950    0.0000 O.3     1  UNL1       -0.5068
      9 C           3.4030   -2.4050    0.0000 C.3     1  UNL1        0.1120
     10 C           4.2690   -2.9050    0.0000 C.3     1  UNL1        0.1152
     11 C           3.4030   -1.4050    0.0000 C.3     1  UNL1        0.1140
     12 C           5.1350   -2.4050    0.0000 C.3     1  UNL1        0.1455
     13 C           5.1350   -1.4050    0.0000 C.3     1  UNL1        0.2340
     14 C           2.5369   -0.9050    0.0000 C.3     1  UNL1        0.0731
     15 C           6.0010    0.0950    0.0000 C.2     1  UNL1        0.3342
     16 C           6.8671    0.5950    0.0000 C.2     1  UNL1        0.0231
     17 C           6.8671    1.5950    0.0000 C.2     1  UNL1       -0.0478
     18 C           7.7331    2.0950    0.0000 C.ar    1  UNL1       -0.0246
     19 C           8.5991    1.5950    0.0000 C.ar    1  UNL1       -0.0511
     20 C           7.7331    3.0950    0.0000 C.ar    1  UNL1       -0.0511
     21 C           9.4651    2.0950    0.0000 C.ar    1  UNL1       -0.0196
     22 C           8.5991    3.5950    0.0000 C.ar    1  UNL1       -0.0196
     23 C           9.4651    3.0950    0.0000 C.ar    1  UNL1        0.1169
     24 H           3.4030   -3.0250    0.0000 H       1  UNL1        0.0647
     25 H           4.8059   -3.2150    0.0000 H       1  UNL1        0.0648
     26 H           3.4030   -0.7850    0.0000 H       1  UNL1        0.0647
     27 H           5.6720   -2.0950    0.0000 H       1  UNL1        0.0683
     28 H           5.1350   -0.7850    0.0000 H       1  UNL1        0.1085
     29 H           1.9264   -0.7973    0.0000 H       1  UNL1        0.0584
     30 H           2.3249   -1.4876    0.0000 H       1  UNL1        0.0584
     31 H           2.0000   -2.5950    0.0000 H       1  UNL1        0.2100
     32 H           3.7320   -4.2150    0.0000 H       1  UNL1        0.2100
     33 H           6.5380   -2.5950    0.0000 H       1  UNL1        0.2102
     34 H           2.0000    0.4050    0.0000 H       1  UNL1        0.2095
     35 H           7.4040    0.2850    0.0000 H       1  UNL1        0.0689
     36 H           6.3301    1.9050    0.0000 H       1  UNL1        0.0626
     37 H           8.5991    0.9750    0.0000 H       1  UNL1        0.0625
     38 H           7.1962    3.4050    0.0000 H       1  UNL1        0.0625
     39 H          10.0021    1.7850    0.0000 H       1  UNL1        0.0654
     40 H           8.5991    4.2150    0.0000 H       1  UNL1        0.0654
     41 H          10.3312    4.2150    0.0000 H       1  UNL1        0.2921
@<TRIPOS>BOND
     1     1    11    1
     2     1    13    1
     3     9     2    1
     4     2    31    1
     5    10     3    1
     6     3    32    1
     7    12     4    1
     8     4    33    1
     9    13     5    1
    10     5    15    1
    11     6    14    1
    12     6    34    1
    13     7    15    2
    14     8    23    1
    15     8    41    1
    16     9    10    1
    17     9    11    1
    18     9    24    1
    19    10    12    1
    20    10    25    1
    21    11    14    1
    22    11    26    1
    23    12    13    1
    24    12    27    1
    25    13    28    1
    26    14    29    1
    27    14    30    1
    28    15    16    1
    29    16    17    2
    30    16    35    1
    31    17    18    1
    32    17    36    1
    33    18    19   ar
    34    18    20   ar
    35    19    21   ar
    36    19    37    1
    37    20    22   ar
    38    20    38    1
    39    21    23   ar
    40    21    39    1
    41    22    23   ar
    42    22    40    1
