@<TRIPOS>MOLECULE
IMPHY000506
 20 22 0 0 0
SMALL
GASTEIGER

@<TRIPOS>ATOM
      1 C           3.4628    0.6207    0.0000 C.ar    1  UNL1        0.1541
      2 C           3.4628    1.6223    0.0000 C.ar    1  UNL1        0.1122
      3 C           4.3279    0.1222    0.0000 C.ar    1  UNL1        0.0743
      4 O           2.5977    0.1222    0.0000 O.2     1  UNL1       -0.4547
      5 C           4.3279    2.1208    0.0000 C.ar    1  UNL1        0.2009
      6 C           2.5977    2.1208    0.0000 C.ar    1  UNL1        0.2045
      7 C           5.1953    0.6207    0.0000 C.ar    1  UNL1        0.1414
      8 C           1.7302    0.6207    0.0000 C.ar    1  UNL1        0.1592
      9 C           5.1953    1.6223    0.0000 C.ar    1  UNL1        0.0553
     10 O           4.3279    3.1225    0.0000 O.3     1  UNL1       -0.2866
     11 C           1.7302    1.6223    0.0000 C.ar    1  UNL1        0.0778
     12 O           2.5977    3.1225    0.0000 O.2     1  UNL1       -0.2863
     13 O           5.9766    0.0000    0.0000 O.3     1  UNL1       -0.4711
     14 C           0.8651    0.1222    0.0000 C.3     1  UNL1        0.2459
     15 C           5.9766    2.2454    0.0000 C.3     1  UNL1        0.0581
     16 C           6.9519    0.2205    0.0000 C.3     1  UNL1        0.2275
     17 O           0.0000    0.6207    0.0000 O.3     1  UNL1       -0.2117
     18 C           6.9519    2.0225    0.0000 C.2     1  UNL1       -0.0261
     19 C           7.3856    1.1215    0.0000 C.2     1  UNL1       -0.0046
     20 C           8.3873    1.1215    0.0000 C.3     1  UNL1        0.0298
@<TRIPOS>BOND
     1     1     2   ar
     2     1     3   ar
     3     1     4   ar
     4     2     5   ar
     5     2     6   ar
     6     3     7   ar
     7     4     8   ar
     8     5     9   ar
     9     5    10    1
    10     6    11   ar
    11     6    12    2
    12     7     9   ar
    13     7    13    1
    14     8    11   ar
    15     8    14    1
    16     9    15    1
    17    13    16    1
    18    14    17    1
    19    15    18    1
    20    16    19    1
    21    18    19    2
    22    19    20    1
