@<TRIPOS>MOLECULE
IMPHY013878
 39 39 0 0 0
SMALL
GASTEIGER

@<TRIPOS>ATOM
      1 O           4.5981    0.0000    0.0000 O.3     1  UNL1       -0.4255
      2 O           6.3301    0.0000    0.0000 O.2     1  UNL1       -0.2504
      3 C           2.8660   -1.0000    0.0000 C.3     1  UNL1       -0.0180
      4 C           3.7320   -1.5000    0.0000 C.ar    1  UNL1       -0.0024
      5 C           6.3301    2.0000    0.0000 C.3     1  UNL1       -0.0367
      6 C           5.4641    1.5000    0.0000 C.3     1  UNL1        0.0477
      7 C           4.5981   -1.0000    0.0000 C.ar    1  UNL1        0.1353
      8 C           2.0000   -1.5000    0.0000 C.3     1  UNL1       -0.0585
      9 C           2.8660    0.0000    0.0000 C.3     1  UNL1       -0.0585
     10 C           3.7320   -2.5000    0.0000 C.ar    1  UNL1       -0.0546
     11 C           6.3301    3.0000    0.0000 C.3     1  UNL1       -0.0622
     12 C           7.1962    1.5000    0.0000 C.3     1  UNL1       -0.0622
     13 C           5.4641   -1.5000    0.0000 C.ar    1  UNL1       -0.0160
     14 C           5.4641    0.5000    0.0000 C.2     1  UNL1        0.3126
     15 C           5.4641   -2.5000    0.0000 C.ar    1  UNL1       -0.0470
     16 C           4.5981   -3.0000    0.0000 C.ar    1  UNL1       -0.0583
     17 C           6.3301   -3.0000    0.0000 C.3     1  UNL1       -0.0396
     18 H           2.8660   -1.6200    0.0000 H       1  UNL1        0.0345
     19 H           6.8671    2.3100    0.0000 H       1  UNL1        0.0301
     20 H           5.2520    2.0826    0.0000 H       1  UNL1        0.0380
     21 H           4.8535    1.3923    0.0000 H       1  UNL1        0.0380
     22 H           1.6900   -0.9631    0.0000 H       1  UNL1        0.0235
     23 H           1.4631   -1.8100    0.0000 H       1  UNL1        0.0235
     24 H           2.3100   -2.0369    0.0000 H       1  UNL1        0.0235
     25 H           3.4860    0.0000    0.0000 H       1  UNL1        0.0235
     26 H           2.8660    0.6200    0.0000 H       1  UNL1        0.0235
     27 H           2.2460    0.0000    0.0000 H       1  UNL1        0.0235
     28 H           3.1951   -2.8100    0.0000 H       1  UNL1        0.0622
     29 H           6.9501    3.0000    0.0000 H       1  UNL1        0.0232
     30 H           6.3301    3.6200    0.0000 H       1  UNL1        0.0232
     31 H           5.7101    3.0000    0.0000 H       1  UNL1        0.0232
     32 H           6.8862    0.9631    0.0000 H       1  UNL1        0.0232
     33 H           7.7331    1.1900    0.0000 H       1  UNL1        0.0232
     34 H           7.5062    2.0369    0.0000 H       1  UNL1        0.0232
     35 H           6.0010   -1.1900    0.0000 H       1  UNL1        0.0657
     36 H           4.5981   -3.6200    0.0000 H       1  UNL1        0.0620
     37 H           6.0201   -3.5369    0.0000 H       1  UNL1        0.0278
     38 H           6.8671   -3.3100    0.0000 H       1  UNL1        0.0278
     39 H           6.6401   -2.4631    0.0000 H       1  UNL1        0.0278
@<TRIPOS>BOND
     1     1     7    1
     2     1    14    1
     3     2    14    2
     4     3     4    1
     5     3     8    1
     6     3     9    1
     7     3    18    1
     8     4     7   ar
     9     4    10   ar
    10     5     6    1
    11     5    11    1
    12     5    12    1
    13     5    19    1
    14     6    14    1
    15     6    20    1
    16     6    21    1
    17     7    13   ar
    18     8    22    1
    19     8    23    1
    20     8    24    1
    21     9    25    1
    22     9    26    1
    23     9    27    1
    24    10    16   ar
    25    10    28    1
    26    11    29    1
    27    11    30    1
    28    11    31    1
    29    12    32    1
    30    12    33    1
    31    12    34    1
    32    13    15   ar
    33    13    35    1
    34    15    16   ar
    35    15    17    1
    36    16    36    1
    37    17    37    1
    38    17    38    1
    39    17    39    1
