@<TRIPOS>MOLECULE
IMPHY004646
 36 36 0 0 0
SMALL
GASTEIGER

@<TRIPOS>ATOM
      1 O           3.3660    0.3655    0.0000 O.3     1  UNL1       -0.3797
      2 O           3.8660   -3.5005    0.0000 O.2     1  UNL1       -0.2927
      3 O           3.8660    2.9636    0.0000 O.3     1  UNL1       -0.3880
      4 C           3.0000   -1.0005    0.0000 C.3     1  UNL1        0.0083
      5 C           3.8660   -0.5005    0.0000 C.3     1  UNL1        0.1108
      6 C           3.0000   -2.0005    0.0000 C.3     1  UNL1        0.0182
      7 C           4.7320   -1.0005    0.0000 C.2     1  UNL1       -0.0339
      8 C           2.0000   -1.0005    0.0000 C.3     1  UNL1       -0.0562
      9 C           2.2340   -0.3577    0.0000 C.3     1  UNL1       -0.0562
     10 C           4.3660    0.3655    0.0000 C.2     1  UNL1       -0.0498
     11 C           3.8660   -2.5005    0.0000 C.2     1  UNL1        0.1568
     12 C           4.7320   -2.0005    0.0000 C.2     1  UNL1       -0.0172
     13 C           5.5981   -0.5005    0.0000 C.3     1  UNL1       -0.0404
     14 C           3.8660    1.2315    0.0000 C.2     1  UNL1       -0.0571
     15 C           4.3660    2.0976    0.0000 C.3     1  UNL1        0.0706
     16 C           5.3660    2.0976    0.0000 C.3     1  UNL1       -0.0353
     17 H           2.3894   -1.8929    0.0000 H       1  UNL1        0.0351
     18 H           2.7880   -2.5831    0.0000 H       1  UNL1        0.0351
     19 H           2.0000   -0.3805    0.0000 H       1  UNL1        0.0236
     20 H           1.3800   -1.0005    0.0000 H       1  UNL1        0.0236
     21 H           2.0000   -1.6205    0.0000 H       1  UNL1        0.0236
     22 H           2.6325    0.1172    0.0000 H       1  UNL1        0.0236
     23 H           1.7590    0.0408    0.0000 H       1  UNL1        0.0236
     24 H           1.8354   -0.8327    0.0000 H       1  UNL1        0.0236
     25 H           4.9860    0.3655    0.0000 H       1  UNL1        0.0601
     26 H           5.2690   -2.3105    0.0000 H       1  UNL1        0.0653
     27 H           2.7835    0.5777    0.0000 H       1  UNL1        0.2111
     28 H           5.9081   -1.0374    0.0000 H       1  UNL1        0.0275
     29 H           6.1350   -0.1905    0.0000 H       1  UNL1        0.0275
     30 H           5.2881    0.0364    0.0000 H       1  UNL1        0.0275
     31 H           3.2460    1.2315    0.0000 H       1  UNL1        0.0595
     32 H           3.7460    2.0976    0.0000 H       1  UNL1        0.0635
     33 H           5.3660    1.4776    0.0000 H       1  UNL1        0.0258
     34 H           5.9860    2.0976    0.0000 H       1  UNL1        0.0258
     35 H           5.3660    2.7176    0.0000 H       1  UNL1        0.0258
     36 H           4.1760    3.5005    0.0000 H       1  UNL1        0.2102
@<TRIPOS>BOND
     1     5     1    1
     2     1    27    1
     3     2    11    2
     4    15     3    1
     5     3    36    1
     6     4     5    1
     7     4     6    1
     8     4     8    1
     9     4     9    1
    10     5     7    1
    11     5    10    1
    12     6    11    1
    13     6    17    1
    14     6    18    1
    15     7    12    2
    16     7    13    1
    17     8    19    1
    18     8    20    1
    19     8    21    1
    20     9    22    1
    21     9    23    1
    22     9    24    1
    23    10    14    2
    24    10    25    1
    25    11    12    1
    26    12    26    1
    27    13    28    1
    28    13    29    1
    29    13    30    1
    30    14    15    1
    31    14    31    1
    32    15    16    1
    33    15    32    1
    34    16    33    1
    35    16    34    1
    36    16    35    1
