@<TRIPOS>MOLECULE
IMPHY010007
 40 43 0 0 0
SMALL
GASTEIGER

@<TRIPOS>ATOM
      1 O           7.2342   -0.6126    0.0000 O.2     1  UNL1       -0.4507
      2 O          10.8064    1.2268    0.0000 O.3     1  UNL1       -0.4489
      3 O          10.8064   -0.3827    0.0000 O.3     1  UNL1       -0.4523
      4 O           5.4641    1.4462    0.0000 O.3     1  UNL1       -0.4883
      5 O           8.9942    2.4221    0.0000 O.3     1  UNL1       -0.5027
      6 O           7.2458    2.4567    0.0000 O.2     1  UNL1       -0.2830
      7 O           2.8641   -0.1121    0.0000 O.3     1  UNL1       -0.4914
      8 O           2.8718   -2.1121    0.0000 O.3     1  UNL1       -0.5033
      9 C           8.1282    0.9221    0.0000 C.ar    1  UNL1        0.1128
     10 C           8.1282   -0.0779    0.0000 C.ar    1  UNL1        0.1468
     11 C           9.8602    0.9221    0.0000 C.ar    1  UNL1        0.2083
     12 C           8.9942    1.4221    0.0000 C.ar    1  UNL1        0.1771
     13 C           9.8602   -0.0779    0.0000 C.ar    1  UNL1        0.1734
     14 C           6.3282   -0.0987    0.0000 C.ar    1  UNL1        0.1809
     15 C           8.9942   -0.5779    0.0000 C.ar    1  UNL1        0.0272
     16 C           7.2342    1.4567    0.0000 C.ar    1  UNL1        0.2382
     17 C           6.3282    0.9429    0.0000 C.ar    1  UNL1        0.2107
     18 C           5.4641   -0.6021    0.0000 C.ar    1  UNL1        0.0247
     19 C          11.3901    0.4221    0.0000 C.3     1  UNL1        0.2334
     20 C           4.5961   -0.1054    0.0000 C.ar    1  UNL1       -0.0055
     21 C           5.4679   -1.6021    0.0000 C.ar    1  UNL1       -0.0473
     22 C           3.7320   -0.6088    0.0000 C.ar    1  UNL1        0.1619
     23 C           4.6038   -2.1054    0.0000 C.ar    1  UNL1       -0.0159
     24 C           3.7359   -1.6087    0.0000 C.ar    1  UNL1        0.1585
     25 C           5.4679    2.4462    0.0000 C.3     1  UNL1        0.0791
     26 C           2.0000   -0.6154    0.0000 C.3     1  UNL1        0.0790
     27 H           8.9942   -1.1979    0.0000 H       1  UNL1        0.0692
     28 H          11.8509    0.0073    0.0000 H       1  UNL1        0.1166
     29 H          11.8509    0.8368    0.0000 H       1  UNL1        0.1166
     30 H           4.5937    0.5146    0.0000 H       1  UNL1        0.0662
     31 H           6.0061   -1.9100    0.0000 H       1  UNL1        0.0626
     32 H           4.6062   -2.7254    0.0000 H       1  UNL1        0.0655
     33 H           9.5311    2.7321    0.0000 H       1  UNL1        0.2923
     34 H           6.0879    2.4438    0.0000 H       1  UNL1        0.0660
     35 H           5.4703    3.0662    0.0000 H       1  UNL1        0.0660
     36 H           4.8479    2.4486    0.0000 H       1  UNL1        0.0660
     37 H           2.8742   -2.7321    0.0000 H       1  UNL1        0.2923
     38 H           1.6879   -0.0797    0.0000 H       1  UNL1        0.0660
     39 H           1.4643   -0.9275    0.0000 H       1  UNL1        0.0660
     40 H           2.3121   -1.1512    0.0000 H       1  UNL1        0.0660
@<TRIPOS>BOND
     1     1    10   ar
     2     1    14   ar
     3     2    11    1
     4     2    19    1
     5     3    13    1
     6     3    19    1
     7     4    17    1
     8     4    25    1
     9     5    12    1
    10     5    33    1
    11     6    16    2
    12     7    22    1
    13     7    26    1
    14     8    24    1
    15     8    37    1
    16     9    10   ar
    17     9    12   ar
    18     9    16   ar
    19    10    15   ar
    20    11    12   ar
    21    11    13   ar
    22    13    15   ar
    23    14    17   ar
    24    14    18    1
    25    15    27    1
    26    16    17   ar
    27    18    20   ar
    28    18    21   ar
    29    19    28    1
    30    19    29    1
    31    20    22   ar
    32    20    30    1
    33    21    23   ar
    34    21    31    1
    35    22    24   ar
    36    23    24   ar
    37    23    32    1
    38    25    34    1
    39    25    35    1
    40    25    36    1
    41    26    38    1
    42    26    39    1
    43    26    40    1
