@<TRIPOS>MOLECULE
IMPHY002529
 44 48 0 0 0
SMALL
GASTEIGER

@<TRIPOS>ATOM
      1 O           2.8660   -1.0103    0.0000 O.2     1  UNL1       -0.4178
      2 O           6.3981   -2.0311    0.0000 O.2     1  UNL1       -0.4178
      3 O           4.5632    1.9887    0.0000 O.3     1  UNL1       -0.4476
      4 O           2.8611    0.9750    0.0000 O.3     1  UNL1       -0.5009
      5 O           6.3038   -4.0634    0.0000 O.3     1  UNL1       -0.5009
      6 O           4.5632   -5.0092    0.0000 O.3     1  UNL1       -0.5032
      7 O           7.2622   -0.4861    0.0000 O.2     1  UNL1       -0.2445
      8 O           2.0000   -2.5103    0.0000 O.2     1  UNL1       -0.2445
      9 O           6.3146    1.0230    0.0000 O.3     1  UNL1       -0.5008
     10 O           8.0266    2.0569    0.0000 O.3     1  UNL1       -0.5008
     11 O           7.9872    4.0565    0.0000 O.3     1  UNL1       -0.5032
     12 O           4.5041    4.9881    0.0000 O.3     1  UNL1       -0.4770
     13 O           3.6678    3.4713    0.0000 O.2     1  UNL1       -0.2450
     14 C           4.5981   -1.0103    0.0000 C.ar    1  UNL1        0.0468
     15 C           4.5981   -2.0103    0.0000 C.ar    1  UNL1        0.0468
     16 C           5.4920   -0.4756    0.0000 C.ar    1  UNL1        0.0745
     17 C           3.7320   -0.5103    0.0000 C.ar    1  UNL1        0.1854
     18 C           3.7320   -2.5103    0.0000 C.ar    1  UNL1        0.0744
     19 C           5.4920   -2.5449    0.0000 C.ar    1  UNL1        0.1854
     20 C           3.7308    0.4814    0.0000 C.ar    1  UNL1        0.2031
     21 C           5.4542    0.5154    0.0000 C.ar    1  UNL1       -0.0009
     22 C           4.5828    0.9889    0.0000 C.ar    1  UNL1        0.1743
     23 C           6.3981   -0.9895    0.0000 C.ar    1  UNL1        0.3454
     24 C           5.4542   -3.5359    0.0000 C.ar    1  UNL1        0.2022
     25 C           2.8660   -2.0103    0.0000 C.ar    1  UNL1        0.3454
     26 C           3.7308   -3.5020    0.0000 C.ar    1  UNL1       -0.0017
     27 C           4.5828   -4.0094    0.0000 C.ar    1  UNL1        0.1628
     28 C           5.4192    2.5056    0.0000 C.ar    1  UNL1        0.1876
     29 C           5.3995    3.5054    0.0000 C.ar    1  UNL1        0.1083
     30 C           6.2949    2.0228    0.0000 C.ar    1  UNL1        0.2060
     31 C           6.2555    4.0224    0.0000 C.ar    1  UNL1        0.0013
     32 C           7.1509    2.5397    0.0000 C.ar    1  UNL1        0.2044
     33 C           7.1312    3.5395    0.0000 C.ar    1  UNL1        0.1630
     34 C           4.5238    3.9883    0.0000 C.2     1  UNL1        0.3406
     35 H           5.9810    0.8424    0.0000 H       1  UNL1        0.0664
     36 H           3.1916   -3.8080    0.0000 H       1  UNL1        0.0664
     37 H           2.8565    1.5950    0.0000 H       1  UNL1        0.2924
     38 H           6.2840   -4.6830    0.0000 H       1  UNL1        0.2924
     39 H           4.0202   -5.3086    0.0000 H       1  UNL1        0.2923
     40 H           6.2433    4.6423    0.0000 H       1  UNL1        0.0665
     41 H           6.8575    0.7236    0.0000 H       1  UNL1        0.2924
     42 H           8.5573    2.3774    0.0000 H       1  UNL1        0.2924
     43 H           7.9750    4.6764    0.0000 H       1  UNL1        0.2923
     44 H           5.0348    5.3086    0.0000 H       1  UNL1        0.2954
@<TRIPOS>BOND
     1     1    17   ar
     2     1    25   ar
     3     2    19   ar
     4     2    23   ar
     5     3    22    1
     6     3    28    1
     7     4    20    1
     8     4    37    1
     9     5    24    1
    10     5    38    1
    11     6    27    1
    12     6    39    1
    13     7    23    2
    14     8    25    2
    15     9    30    1
    16     9    41    1
    17    10    32    1
    18    10    42    1
    19    11    33    1
    20    11    43    1
    21    12    34    1
    22    12    44    1
    23    13    34    2
    24    14    15   ar
    25    14    16   ar
    26    14    17   ar
    27    15    18   ar
    28    15    19   ar
    29    16    21   ar
    30    16    23   ar
    31    17    20   ar
    32    18    25   ar
    33    18    26   ar
    34    19    24   ar
    35    20    22   ar
    36    21    22   ar
    37    21    35    1
    38    24    27   ar
    39    26    27   ar
    40    26    36    1
    41    28    29   ar
    42    28    30   ar
    43    29    31   ar
    44    29    34    1
    45    30    32   ar
    46    31    33   ar
    47    31    40    1
    48    32    33   ar
