@<TRIPOS>MOLECULE
IMPHY010306
 104 107 0 0 0
SMALL
GASTEIGER

@<TRIPOS>ATOM
      1 CL          7.2335    1.2832    0.0000 Cl      1  UNL1       -0.0778
      2 O           6.0402    0.4168    0.0000 O.3     1  UNL1       -0.3608
      3 O           5.9384   -1.0862    0.0000 O.3     1  UNL1       -0.4566
      4 O           4.7569    3.1583    0.0000 O.3     1  UNL1       -0.4465
      5 O           6.4889    5.1583    0.0000 O.3     1  UNL1       -0.3686
      6 O           7.7776    5.5646    0.0000 O.3     1  UNL1       -0.3712
      7 O           8.6645   -2.3388    0.0000 O.2     1  UNL1       -0.2751
      8 O           3.8908    4.6583    0.0000 O.2     1  UNL1       -0.2264
      9 O           6.8691   -2.5470    0.0000 O.2     1  UNL1       -0.2487
     10 O           3.4519   -3.6971    0.0000 O.2     1  UNL1       -0.2753
     11 O          11.5870    1.7922    0.0000 O.3     1  UNL1       -0.3709
     12 O           7.2334    2.3058    0.0000 O.3     1  UNL1       -0.4936
     13 N           5.6229    4.6583    0.0000 N.am    1  UNL1       -0.2504
     14 N           8.9889   -0.7078    0.0000 N.am    1  UNL1       -0.2729
     15 N           5.1823   -3.6216    0.0000 N.am    1  UNL1       -0.2911
     16 C           7.0406    0.4171    0.0000 C.3     1  UNL1        0.1306
     17 C           6.5406    1.2831    0.0000 C.3     1  UNL1        0.0977
     18 C           5.6229    1.6583    0.0000 C.3     1  UNL1        0.0226
     19 C           6.7818   -0.5488    0.0000 C.3     1  UNL1        0.1423
     20 C           5.6229    2.6583    0.0000 C.3     1  UNL1        0.1139
     21 C           7.9067   -0.0828    0.0000 C.3     1  UNL1       -0.0298
     22 C           4.6230    1.6714    0.0000 C.3     1  UNL1       -0.0566
     23 C           6.4889    3.1583    0.0000 C.3     1  UNL1        0.0335
     24 C           7.2818   -1.4149    0.0000 C.3     1  UNL1        0.0644
     25 C           6.4889    4.1583    0.0000 C.3     1  UNL1        0.1684
     26 C           7.3550    4.6583    0.0000 C.3     1  UNL1        0.1223
     27 C           8.2818   -1.4149    0.0000 C.2     1  UNL1        0.2232
     28 C           4.7569    4.1583    0.0000 C.2     1  UNL1        0.4027
     29 C           5.9820   -2.0852    0.0000 C.2     1  UNL1        0.3279
     30 C           5.1387   -2.6225    0.0000 C.3     1  UNL1        0.1198
     31 C           8.2210    4.1583    0.0000 C.2     1  UNL1       -0.0513
     32 C           8.9889    0.2922    0.0000 C.ar    1  UNL1        0.0582
     33 C           9.9128   -1.0904    0.0000 C.3     1  UNL1        0.0083
     34 C           4.2516   -2.1608    0.0000 C.3     1  UNL1       -0.0360
     35 C           9.2210    4.1583    0.0000 C.2     1  UNL1       -0.0631
     36 C           8.7738    5.6517    0.0000 C.3     1  UNL1        0.0374
     37 C           9.8550    0.7922    0.0000 C.ar    1  UNL1       -0.0327
     38 C           8.1034    0.7899    0.0000 C.ar    1  UNL1        0.1038
     39 C           4.3389   -4.1588    0.0000 C.2     1  UNL1        0.2186
     40 C           6.0693   -4.0833    0.0000 C.3     1  UNL1        0.0040
     41 C           9.7210    3.2922    0.0000 C.2     1  UNL1       -0.0602
     42 C           9.8550    1.7922    0.0000 C.ar    1  UNL1       -0.0095
     43 C          10.7210    2.2922    0.0000 C.3     1  UNL1        0.1046
     44 C          10.7210    3.2922    0.0000 C.2     1  UNL1       -0.0399
     45 C           4.3825   -5.1579    0.0000 C.3     1  UNL1        0.0301
     46 C           8.0995    1.8058    0.0000 C.ar    1  UNL1        0.1405
     47 C           8.9812    2.3103    0.0000 C.ar    1  UNL1       -0.0124
     48 C          11.4281    3.9993    0.0000 C.3     1  UNL1       -0.0407
     49 C           3.5391   -5.6952    0.0000 C.3     1  UNL1       -0.0544
     50 C           5.2695   -5.6196    0.0000 C.3     1  UNL1       -0.0544
     51 C          12.4530    2.2922    0.0000 C.3     1  UNL1        0.0377
     52 C           7.2334    3.3058    0.0000 C.3     1  UNL1        0.0789
     53 H           6.9658    2.0191    0.0000 H       1  UNL1        0.0630
     54 H           5.2182    1.1886    0.0000 H       1  UNL1        0.0360
     55 H           6.1671   -0.4679    0.0000 H       1  UNL1        0.0769
     56 H           4.8868    2.2333    0.0000 H       1  UNL1        0.0739
     57 H           8.2167    0.4542    0.0000 H       1  UNL1        0.0259
     58 H           8.4437   -0.3927    0.0000 H       1  UNL1        0.0259
     59 H           7.5968   -0.6198    0.0000 H       1  UNL1        0.0259
     60 H           4.6149    1.0514    0.0000 H       1  UNL1        0.0234
     61 H           4.0030    1.6795    0.0000 H       1  UNL1        0.0234
     62 H           4.6311    2.2913    0.0000 H       1  UNL1        0.0234
     63 H           7.0995    3.2659    0.0000 H       1  UNL1        0.0346
     64 H           6.7010    2.5756    0.0000 H       1  UNL1        0.0346
     65 H           7.3895   -2.0255    0.0000 H       1  UNL1        0.0396
     66 H           6.6992   -1.6269    0.0000 H       1  UNL1        0.0396
     67 H           7.1945    5.2571    0.0000 H       1  UNL1        0.0686
     68 H           5.3129    5.1952    0.0000 H       1  UNL1        0.1549
     69 H           6.1789    5.6952    0.0000 H       1  UNL1        0.2121
     70 H           5.6886   -2.9088    0.0000 H       1  UNL1        0.0613
     71 H           8.0605    3.5594    0.0000 H       1  UNL1        0.0599
     72 H          10.1501   -0.5176    0.0000 H       1  UNL1        0.0433
     73 H          10.4856   -1.3277    0.0000 H       1  UNL1        0.0433
     74 H           9.6755   -1.6633    0.0000 H       1  UNL1        0.0433
     75 H           3.9654   -2.7107    0.0000 H       1  UNL1        0.0253
     76 H           3.7017   -1.8745    0.0000 H       1  UNL1        0.0253
     77 H           4.5379   -1.6108    0.0000 H       1  UNL1        0.0253
     78 H           9.5310    4.6952    0.0000 H       1  UNL1        0.0615
     79 H           8.7197    6.2694    0.0000 H       1  UNL1        0.0524
     80 H           9.3914    5.7058    0.0000 H       1  UNL1        0.0524
     81 H           8.8278    5.0341    0.0000 H       1  UNL1        0.0524
     82 H          10.3919    0.4822    0.0000 H       1  UNL1        0.0640
     83 H           6.3556   -3.5334    0.0000 H       1  UNL1        0.0429
     84 H           6.6192   -4.3696    0.0000 H       1  UNL1        0.0429
     85 H           5.7830   -4.6332    0.0000 H       1  UNL1        0.0429
     86 H           9.4110    2.7553    0.0000 H       1  UNL1        0.0618
     87 H          10.7210    1.6722    0.0000 H       1  UNL1        0.0694
     88 H           4.9054   -4.8248    0.0000 H       1  UNL1        0.0389
     89 H           8.9859    2.9303    0.0000 H       1  UNL1        0.0658
     90 H          10.9897    4.4377    0.0000 H       1  UNL1        0.0275
     91 H          11.8665    4.4377    0.0000 H       1  UNL1        0.0275
     92 H          11.8665    3.5609    0.0000 H       1  UNL1        0.0275
     93 H           5.5558   -5.0697    0.0000 H       1  UNL1        0.0237
     94 H           5.8195   -5.9059    0.0000 H       1  UNL1        0.0237
     95 H           4.9832   -6.1696    0.0000 H       1  UNL1        0.0237
     96 H           3.8722   -6.2181    0.0000 H       1  UNL1        0.0237
     97 H           3.0162   -6.0283    0.0000 H       1  UNL1        0.0237
     98 H           3.2060   -5.1723    0.0000 H       1  UNL1        0.0237
     99 H          12.1430    2.8292    0.0000 H       1  UNL1        0.0524
    100 H          12.9900    2.6022    0.0000 H       1  UNL1        0.0524
    101 H          12.7630    1.7553    0.0000 H       1  UNL1        0.0524
    102 H           6.6134    3.3058    0.0000 H       1  UNL1        0.0660
    103 H           7.2334    3.9258    0.0000 H       1  UNL1        0.0660
    104 H           7.8534    3.3058    0.0000 H       1  UNL1        0.0660
@<TRIPOS>BOND
     1     1    38    1
     2     2    16    1
     3     2    17    1
     4    19     3    1
     5     3    29    1
     6     4    20    1
     7     4    28    1
     8    25     5    1
     9     5    69    1
    10    26     6    1
    11     6    36    1
    12     7    27    2
    13     8    28    2
    14     9    29    2
    15    10    39    2
    16    11    43    1
    17    11    51    1
    18    12    46    1
    19    12    52    1
    20    13    25    1
    21    13    28   am
    22    13    68    1
    23    14    27   am
    24    14    32    1
    25    14    33    1
    26    30    15    1
    27    15    39   am
    28    15    40    1
    29    16    17    1
    30    16    19    1
    31    16    21    1
    32    17    18    1
    33    17    53    1
    34    18    20    1
    35    18    22    1
    36    18    54    1
    37    19    24    1
    38    19    55    1
    39    20    23    1
    40    20    56    1
    41    21    57    1
    42    21    58    1
    43    21    59    1
    44    22    60    1
    45    22    61    1
    46    22    62    1
    47    23    25    1
    48    23    63    1
    49    23    64    1
    50    24    27    1
    51    24    65    1
    52    24    66    1
    53    25    26    1
    54    26    31    1
    55    26    67    1
    56    29    30    1
    57    30    34    1
    58    30    70    1
    59    31    35    2
    60    31    71    1
    61    32    37   ar
    62    32    38   ar
    63    33    72    1
    64    33    73    1
    65    33    74    1
    66    34    75    1
    67    34    76    1
    68    34    77    1
    69    35    41    1
    70    35    78    1
    71    36    79    1
    72    36    80    1
    73    36    81    1
    74    37    42   ar
    75    37    82    1
    76    38    46   ar
    77    39    45    1
    78    40    83    1
    79    40    84    1
    80    40    85    1
    81    41    44    2
    82    41    86    1
    83    42    43    1
    84    42    47   ar
    85    43    44    1
    86    43    87    1
    87    44    48    1
    88    45    49    1
    89    45    50    1
    90    45    88    1
    91    46    47   ar
    92    47    89    1
    93    48    90    1
    94    48    91    1
    95    48    92    1
    96    49    96    1
    97    49    97    1
    98    49    98    1
    99    50    93    1
   100    50    94    1
   101    50    95    1
   102    51    99    1
   103    51   100    1
   104    51   101    1
   105    52   102    1
   106    52   103    1
   107    52   104    1
