@<TRIPOS>MOLECULE
IMPHY008891
 25 26 0 0 0
SMALL
GASTEIGER

@<TRIPOS>ATOM
      1 CL          2.8660    1.1379    0.0000 Cl      1  UNL1       -0.0829
      2 O           6.2781    2.0499    0.0000 O.3     1  UNL1       -0.4677
      3 O           6.6353    0.3551    0.0000 O.2     1  UNL1       -0.2505
      4 N           4.6783   -1.6668    0.0000 N.ar    1  UNL1       -0.3603
      5 C           3.7320   -0.3621    0.0000 C.ar    1  UNL1        0.0216
      6 C           4.6783   -0.0573    0.0000 C.ar    1  UNL1       -0.0103
      7 C           3.7320   -1.3621    0.0000 C.ar    1  UNL1        0.0481
      8 C           4.9889    0.8932    0.0000 C.3     1  UNL1        0.0720
      9 C           5.2619   -0.8621    0.0000 C.ar    1  UNL1        0.0065
     10 C           2.8660    0.1379    0.0000 C.ar    1  UNL1        0.0504
     11 C           2.8660   -1.8621    0.0000 C.ar    1  UNL1       -0.0377
     12 C           2.0000   -0.3621    0.0000 C.ar    1  UNL1       -0.0427
     13 C           2.0000   -1.3621    0.0000 C.ar    1  UNL1       -0.0584
     14 C           5.9674    1.0994    0.0000 C.2     1  UNL1        0.3113
     15 C           7.2566    2.2561    0.0000 C.3     1  UNL1        0.0817
     16 H           4.9684    1.5128    0.0000 H       1  UNL1        0.0427
     17 H           4.3751    0.9805    0.0000 H       1  UNL1        0.0427
     18 H           5.8819   -0.8621    0.0000 H       1  UNL1        0.0810
     19 H           4.8709   -2.2561    0.0000 H       1  UNL1        0.1653
     20 H           2.8660   -2.4821    0.0000 H       1  UNL1        0.0638
     21 H           1.4631   -0.0521    0.0000 H       1  UNL1        0.0632
     22 H           1.4631   -1.6721    0.0000 H       1  UNL1        0.0619
     23 H           7.3845    1.6495    0.0000 H       1  UNL1        0.0661
     24 H           7.8633    2.3840    0.0000 H       1  UNL1        0.0661
     25 H           7.1288    2.8628    0.0000 H       1  UNL1        0.0661
@<TRIPOS>BOND
     1     1    10    1
     2     2    14    1
     3     2    15    1
     4     3    14    2
     5     4     7   ar
     6     4     9   ar
     7     4    19    1
     8     5     6   ar
     9     5     7   ar
    10     5    10   ar
    11     6     8    1
    12     6     9   ar
    13     7    11   ar
    14     8    14    1
    15     8    16    1
    16     8    17    1
    17     9    18    1
    18    10    12   ar
    19    11    13   ar
    20    11    20    1
    21    12    13   ar
    22    12    21    1
    23    13    22    1
    24    15    23    1
    25    15    24    1
    26    15    25    1
