@<TRIPOS>MOLECULE
IMPHY011172
 82 87 0 0 0
SMALL
GASTEIGER

@<TRIPOS>ATOM
      1 O           6.8383   -0.4642    0.0000 O.3     1  UNL1       -0.3633
      2 O          10.2824   -0.9530    0.0000 O.3     1  UNL1       -0.4567
      3 O           3.8185   -0.2874    0.0000 O.3     1  UNL1       -0.4559
      4 O           7.9806    3.6549    0.0000 O.2     1  UNL1       -0.2963
      5 O          10.7395    3.3382    0.0000 O.3     1  UNL1       -0.3803
      6 O           4.3137   -2.0264    0.0000 O.2     1  UNL1       -0.2508
      7 O          12.7368    3.2336    0.0000 O.3     1  UNL1       -0.4661
      8 O          12.6461    1.5039    0.0000 O.2     1  UNL1       -0.2479
      9 O           2.0000    2.2427    0.0000 O.2     1  UNL1       -0.4706
     10 O          12.0121   -0.8623    0.0000 O.2     1  UNL1       -0.2453
     11 C           6.9084    0.5338    0.0000 C.3     1  UNL1        0.1044
     12 C           7.1840    1.4951    0.0000 C.3     1  UNL1        0.0034
     13 C           7.7374   -0.0254    0.0000 C.3     1  UNL1        0.1019
     14 C           9.2172    1.8062    0.0000 C.3     1  UNL1        0.0385
     15 C           5.9017    0.2663    0.0000 C.3     1  UNL1        0.0100
     16 C           8.9584    0.8403    0.0000 C.3     1  UNL1        0.0844
     17 C           5.1723    1.0100    0.0000 C.3     1  UNL1        0.0153
     18 C          10.6489    1.6086    0.0000 C.3     1  UNL1        0.0164
     19 C           6.4720    2.2554    0.0000 C.3     1  UNL1       -0.0460
     20 C           8.4806    2.7888    0.0000 C.2     1  UNL1        0.1491
     21 C          11.0072    0.6750    0.0000 C.3     1  UNL1        0.0095
     22 C          10.2301    0.0457    0.0000 C.3     1  UNL1        0.1208
     23 C           5.4594    2.0112    0.0000 C.3     1  UNL1       -0.0432
     24 C           5.6268   -0.7833    0.0000 C.3     1  UNL1        0.0511
     25 C           9.4761    2.7722    0.0000 C.3     1  UNL1       -0.0521
     26 C           4.1176    0.7556    0.0000 C.3     1  UNL1        0.1366
     27 C          11.1935    2.4472    0.0000 C.3     1  UNL1        0.1558
     28 C           4.4722    1.7239    0.0000 C.3     1  UNL1       -0.0555
     29 C          11.9732    0.9338    0.0000 C.3     1  UNL1       -0.0560
     30 C          11.7144   -0.0321    0.0000 C.3     1  UNL1       -0.0560
     31 C           4.5782   -1.0620    0.0000 C.2     1  UNL1        0.3081
     32 C           3.4257    1.4776    0.0000 C.ar    1  UNL1        0.0309
     33 C          12.1921    2.3949    0.0000 C.2     1  UNL1        0.3361
     34 C          11.1734   -1.4070    0.0000 C.2     1  UNL1        0.3349
     35 C           3.6031    2.4618    0.0000 C.ar    1  UNL1       -0.0172
     36 C           2.4349    1.3423    0.0000 C.ar    1  UNL1        0.0984
     37 C          11.2258   -2.4056    0.0000 C.2     1  UNL1        0.0293
     38 C           2.7220    2.9346    0.0000 C.ar    1  UNL1        0.0921
     39 C          13.7354    3.1812    0.0000 C.3     1  UNL1        0.0817
     40 C          10.3871   -2.9502    0.0000 C.3     1  UNL1       -0.0333
     41 C          12.1168   -2.8596    0.0000 C.2     1  UNL1       -0.0774
     42 C          12.1691   -3.8582    0.0000 C.3     1  UNL1       -0.0461
     43 H           7.4183    2.3122    0.0000 H       1  UNL1        0.0339
     44 H           8.4421   -0.5007    0.0000 H       1  UNL1        0.0633
     45 H           6.5038   -0.3337    0.0000 H       1  UNL1        0.0341
     46 H           8.7384    0.0193    0.0000 H       1  UNL1        0.0441
     47 H          11.4942    1.5197    0.0000 H       1  UNL1        0.0347
     48 H           6.9905    2.5955    0.0000 H       1  UNL1        0.0269
     49 H           6.2257    2.8244    0.0000 H       1  UNL1        0.0269
     50 H          10.7965   -0.2065    0.0000 H       1  UNL1        0.0747
     51 H           5.4194    2.6300    0.0000 H       1  UNL1        0.0272
     52 H           4.8430    2.0776    0.0000 H       1  UNL1        0.0272
     53 H           5.6812   -1.4009    0.0000 H       1  UNL1        0.0381
     54 H           6.2446   -0.8354    0.0000 H       1  UNL1        0.0381
     55 H          10.0749    2.6117    0.0000 H       1  UNL1        0.0239
     56 H           9.6365    3.3710    0.0000 H       1  UNL1        0.0239
     57 H           8.8772    2.9326    0.0000 H       1  UNL1        0.0239
     58 H           3.5157    0.6068    0.0000 H       1  UNL1        0.0792
     59 H          11.5312    2.9672    0.0000 H       1  UNL1        0.0713
     60 H           4.9148    2.1580    0.0000 H       1  UNL1        0.0236
     61 H           4.0380    2.1666    0.0000 H       1  UNL1        0.0236
     62 H           4.0295    1.2898    0.0000 H       1  UNL1        0.0236
     63 H          12.1336    0.3349    0.0000 H       1  UNL1        0.0236
     64 H          12.5720    1.0943    0.0000 H       1  UNL1        0.0236
     65 H          11.8127    1.5327    0.0000 H       1  UNL1        0.0236
     66 H          11.2759   -0.4705    0.0000 H       1  UNL1        0.0236
     67 H          12.1528   -0.4705    0.0000 H       1  UNL1        0.0236
     68 H          12.1528    0.4063    0.0000 H       1  UNL1        0.0236
     69 H          11.0772    3.8582    0.0000 H       1  UNL1        0.2105
     70 H           4.1614    2.7314    0.0000 H       1  UNL1        0.0653
     71 H           2.1417    0.7960    0.0000 H       1  UNL1        0.1033
     72 H           2.6381    3.5489    0.0000 H       1  UNL1        0.1029
     73 H          13.7030    2.5621    0.0000 H       1  UNL1        0.0661
     74 H          14.3546    3.1488    0.0000 H       1  UNL1        0.0661
     75 H          13.7679    3.8004    0.0000 H       1  UNL1        0.0661
     76 H          10.0494   -2.4302    0.0000 H       1  UNL1        0.0280
     77 H           9.8671   -3.2879    0.0000 H       1  UNL1        0.0280
     78 H          10.7248   -3.4702    0.0000 H       1  UNL1        0.0280
     79 H          12.6368   -2.5219    0.0000 H       1  UNL1        0.0574
     80 H          11.5500   -3.8907    0.0000 H       1  UNL1        0.0272
     81 H          12.2016   -4.4774    0.0000 H       1  UNL1        0.0272
     82 H          12.7883   -3.8258    0.0000 H       1  UNL1        0.0272
@<TRIPOS>BOND
     1    11     1    1
     2     1    13    1
     3    22     2    1
     4     2    34    1
     5     3    26    1
     6     3    31    1
     7     4    20    2
     8    27     5    1
     9     5    69    1
    10     6    31    2
    11     7    33    1
    12     7    39    1
    13     8    33    2
    14     9    36   ar
    15     9    38   ar
    16    10    34    2
    17    11    12    1
    18    11    13    1
    19    11    15    1
    20    12    14    1
    21    12    19    1
    22    12    43    1
    23    13    16    1
    24    13    44    1
    25    14    18    1
    26    14    20    1
    27    14    25    1
    28    15    17    1
    29    15    24    1
    30    15    45    1
    31    16    20    1
    32    16    22    1
    33    16    46    1
    34    17    23    1
    35    17    26    1
    36    17    28    1
    37    18    21    1
    38    18    27    1
    39    18    47    1
    40    19    23    1
    41    19    48    1
    42    19    49    1
    43    21    22    1
    44    21    29    1
    45    21    30    1
    46    22    50    1
    47    23    51    1
    48    23    52    1
    49    24    31    1
    50    24    53    1
    51    24    54    1
    52    25    55    1
    53    25    56    1
    54    25    57    1
    55    26    32    1
    56    26    58    1
    57    27    33    1
    58    27    59    1
    59    28    60    1
    60    28    61    1
    61    28    62    1
    62    29    63    1
    63    29    64    1
    64    29    65    1
    65    30    66    1
    66    30    67    1
    67    30    68    1
    68    32    35   ar
    69    32    36   ar
    70    34    37    1
    71    35    38   ar
    72    35    70    1
    73    36    71    1
    74    37    40    1
    75    37    41    2
    76    38    72    1
    77    39    73    1
    78    39    74    1
    79    39    75    1
    80    40    76    1
    81    40    77    1
    82    40    78    1
    83    41    42    1
    84    41    79    1
    85    42    80    1
    86    42    81    1
    87    42    82    1
