@<TRIPOS>MOLECULE
IMPHY001814
 19 19 0 0 0
SMALL
GASTEIGER

@<TRIPOS>ATOM
      1 O           2.0000   -1.5600    0.0000 O.3     1  UNL1       -0.4951
      2 O           4.5981    1.9400    0.0000 O.3     1  UNL1       -0.4771
      3 O           2.8660    1.9400    0.0000 O.2     1  UNL1       -0.2451
      4 C           3.7320    0.4400    0.0000 C.ar    1  UNL1        0.0623
      5 C           2.8660   -1.0600    0.0000 C.ar    1  UNL1        0.1209
      6 C           2.8660   -0.0600    0.0000 C.ar    1  UNL1       -0.0060
      7 C           4.5981   -0.0600    0.0000 C.ar    1  UNL1       -0.0475
      8 C           3.7320   -1.5600    0.0000 C.ar    1  UNL1       -0.0199
      9 C           4.5981   -1.0600    0.0000 C.ar    1  UNL1       -0.0575
     10 C           3.7320    1.4400    0.0000 C.2     1  UNL1        0.3369
     11 C           2.0000   -2.5600    0.0000 C.3     1  UNL1        0.0788
     12 H           2.3291    0.2500    0.0000 H       1  UNL1        0.0662
     13 H           5.1350    0.2500    0.0000 H       1  UNL1        0.0626
     14 H           3.7320   -2.1800    0.0000 H       1  UNL1        0.0654
     15 H           5.1350   -1.3700    0.0000 H       1  UNL1        0.0619
     16 H           1.3800   -2.5600    0.0000 H       1  UNL1        0.0660
     17 H           2.0000   -3.1800    0.0000 H       1  UNL1        0.0660
     18 H           2.6200   -2.5600    0.0000 H       1  UNL1        0.0660
     19 H           4.5981    2.5600    0.0000 H       1  UNL1        0.2954
@<TRIPOS>BOND
     1     1     5    1
     2     1    11    1
     3     2    10    1
     4     2    19    1
     5     3    10    2
     6     4     6   ar
     7     4     7   ar
     8     4    10    1
     9     5     6   ar
    10     5     8   ar
    11     6    12    1
    12     7     9   ar
    13     7    13    1
    14     8     9   ar
    15     8    14    1
    16     9    15    1
    17    11    16    1
    18    11    17    1
    19    11    18    1
