@<TRIPOS>MOLECULE
IMPHY011563
 35 36 0 0 0
SMALL
GASTEIGER

@<TRIPOS>ATOM
      1 O           6.4103   -1.1217    0.0000 O.2     1  UNL1       -0.4668
      2 O           4.5981    1.6830    0.0000 O.2     1  UNL1       -0.2913
      3 C           3.7320   -0.8170    0.0000 C.3     1  UNL1        0.0060
      4 C           3.7320    0.1830    0.0000 C.3     1  UNL1        0.0519
      5 C           4.5981   -1.3170    0.0000 C.3     1  UNL1        0.0160
      6 C           5.4641   -0.8170    0.0000 C.ar    1  UNL1        0.1164
      7 C           4.5981    0.6830    0.0000 C.2     1  UNL1        0.1745
      8 C           5.4641    0.1830    0.0000 C.ar    1  UNL1        0.0618
      9 C           3.2320   -1.6830    0.0000 C.3     1  UNL1       -0.0548
     10 C           2.8660    0.6830    0.0000 C.2     1  UNL1       -0.0684
     11 C           2.7320   -0.8170    0.0000 C.2     1  UNL1       -0.0838
     12 C           6.4103    0.4877    0.0000 C.ar    1  UNL1       -0.0019
     13 C           6.9939   -0.3170    0.0000 C.ar    1  UNL1        0.0957
     14 C           2.8660    1.6830    0.0000 C.3     1  UNL1       -0.0433
     15 C           2.0000    0.1830    0.0000 C.2     1  UNL1       -0.0990
     16 C           2.2320   -1.6830    0.0000 C.2     1  UNL1       -0.1021
     17 C           6.7210    1.4383    0.0000 C.3     1  UNL1       -0.0360
     18 H           3.7320    0.8030    0.0000 H       1  UNL1        0.0435
     19 H           4.1996   -1.7919    0.0000 H       1  UNL1        0.0352
     20 H           4.9966   -1.7919    0.0000 H       1  UNL1        0.0352
     21 H           2.6951   -1.3730    0.0000 H       1  UNL1        0.0238
     22 H           2.9220   -2.2200    0.0000 H       1  UNL1        0.0238
     23 H           3.7690   -1.9930    0.0000 H       1  UNL1        0.0238
     24 H           2.4220   -0.2801    0.0000 H       1  UNL1        0.0572
     25 H           7.6139   -0.3170    0.0000 H       1  UNL1        0.1032
     26 H           3.4860    1.6830    0.0000 H       1  UNL1        0.0274
     27 H           2.8660    2.3030    0.0000 H       1  UNL1        0.0274
     28 H           2.2460    1.6830    0.0000 H       1  UNL1        0.0274
     29 H           1.4631    0.4930    0.0000 H       1  UNL1        0.0535
     30 H           2.0000   -0.4370    0.0000 H       1  UNL1        0.0535
     31 H           1.6120   -1.6830    0.0000 H       1  UNL1        0.0532
     32 H           2.5420   -2.2200    0.0000 H       1  UNL1        0.0532
     33 H           7.3103    1.2456    0.0000 H       1  UNL1        0.0279
     34 H           6.9136    2.0276    0.0000 H       1  UNL1        0.0279
     35 H           6.1317    1.6309    0.0000 H       1  UNL1        0.0279
@<TRIPOS>BOND
     1     1     6   ar
     2     1    13   ar
     3     2     7    2
     4     3     4    1
     5     3     5    1
     6     3     9    1
     7     3    11    1
     8     4     7    1
     9     4    10    1
    10     4    18    1
    11     5     6    1
    12     5    19    1
    13     5    20    1
    14     6     8   ar
    15     7     8    1
    16     8    12   ar
    17     9    21    1
    18     9    22    1
    19     9    23    1
    20    10    14    1
    21    10    15    2
    22    11    16    2
    23    11    24    1
    24    12    13   ar
    25    12    17    1
    26    13    25    1
    27    14    26    1
    28    14    27    1
    29    14    28    1
    30    15    29    1
    31    15    30    1
    32    16    31    1
    33    16    32    1
    34    17    33    1
    35    17    34    1
    36    17    35    1
