@<TRIPOS>MOLECULE
IMPHY012941
 52 53 0 0 0
SMALL
GASTEIGER

@<TRIPOS>ATOM
      1 O          12.4725   -0.1953    0.0000 O.3     1  UNL1       -0.4489
      2 O          12.4725   -1.8047    0.0000 O.3     1  UNL1       -0.4525
      3 O          10.6603    1.0000    0.0000 O.3     1  UNL1       -0.4913
      4 O           6.3301   -1.5000    0.0000 O.3     1  UNL1       -0.4571
      5 O           3.7320   -0.0000    0.0000 O.3     1  UNL1       -0.4564
      6 O           5.4641   -3.0000    0.0000 O.2     1  UNL1       -0.2452
      7 O           4.5981    1.5000    0.0000 O.2     1  UNL1       -0.2453
      8 C          11.5263   -0.5000    0.0000 C.ar    1  UNL1        0.2075
      9 C          11.5263   -1.5000    0.0000 C.ar    1  UNL1        0.1705
     10 C           9.7942   -1.5000    0.0000 C.ar    1  UNL1       -0.0181
     11 C          10.6603    0.0000    0.0000 C.ar    1  UNL1        0.1659
     12 C          10.6603   -2.0000    0.0000 C.ar    1  UNL1       -0.0088
     13 C           9.7942   -0.5000    0.0000 C.ar    1  UNL1       -0.0089
     14 C          13.0561   -1.0000    0.0000 C.3     1  UNL1        0.2334
     15 C           8.9282   -2.0000    0.0000 C.2     1  UNL1       -0.0551
     16 C           8.0622   -1.5000    0.0000 C.2     1  UNL1       -0.0465
     17 C           7.1962   -2.0000    0.0000 C.3     1  UNL1        0.1113
     18 C           4.5981   -1.5000    0.0000 C.2     1  UNL1        0.0695
     19 C           4.5981   -0.5000    0.0000 C.3     1  UNL1        0.1242
     20 C           5.4641   -2.0000    0.0000 C.2     1  UNL1        0.3384
     21 C           9.7942    1.5000    0.0000 C.3     1  UNL1        0.0790
     22 C           3.7320   -2.0000    0.0000 C.2     1  UNL1       -0.0739
     23 C           2.8660    1.5000    0.0000 C.2     1  UNL1        0.0293
     24 C           3.7320    1.0000    0.0000 C.2     1  UNL1        0.3349
     25 C           3.7320   -3.0000    0.0000 C.3     1  UNL1       -0.0459
     26 C           2.0000    1.0000    0.0000 C.3     1  UNL1       -0.0333
     27 C           2.8660    2.5000    0.0000 C.2     1  UNL1       -0.0774
     28 C           3.7320    3.0000    0.0000 C.3     1  UNL1       -0.0461
     29 H          10.6603   -2.6200    0.0000 H       1  UNL1        0.0661
     30 H           9.2573   -0.1900    0.0000 H       1  UNL1        0.0661
     31 H          13.5170   -1.4147    0.0000 H       1  UNL1        0.1166
     32 H          13.5170   -0.5853    0.0000 H       1  UNL1        0.1166
     33 H           8.9282   -2.6200    0.0000 H       1  UNL1        0.0621
     34 H           8.0622   -0.8800    0.0000 H       1  UNL1        0.0606
     35 H           6.7976   -2.4750    0.0000 H       1  UNL1        0.0743
     36 H           7.5947   -2.4750    0.0000 H       1  UNL1        0.0743
     37 H           5.2087   -0.6077    0.0000 H       1  UNL1        0.0751
     38 H           4.8101    0.0826    0.0000 H       1  UNL1        0.0751
     39 H          10.1042    2.0369    0.0000 H       1  UNL1        0.0660
     40 H           9.2573    1.8100    0.0000 H       1  UNL1        0.0660
     41 H           9.4842    0.9631    0.0000 H       1  UNL1        0.0660
     42 H           3.1951   -1.6900    0.0000 H       1  UNL1        0.0575
     43 H           3.1120   -3.0000    0.0000 H       1  UNL1        0.0272
     44 H           3.7320   -3.6200    0.0000 H       1  UNL1        0.0272
     45 H           4.3520   -3.0000    0.0000 H       1  UNL1        0.0272
     46 H           1.6900    1.5369    0.0000 H       1  UNL1        0.0280
     47 H           1.4631    0.6900    0.0000 H       1  UNL1        0.0280
     48 H           2.3100    0.4631    0.0000 H       1  UNL1        0.0280
     49 H           2.3291    2.8100    0.0000 H       1  UNL1        0.0574
     50 H           4.0420    2.4631    0.0000 H       1  UNL1        0.0272
     51 H           4.2690    3.3100    0.0000 H       1  UNL1        0.0272
     52 H           3.4220    3.5369    0.0000 H       1  UNL1        0.0272
@<TRIPOS>BOND
     1     1     8    1
     2     1    14    1
     3     2     9    1
     4     2    14    1
     5     3    11    1
     6     3    21    1
     7     4    17    1
     8     4    20    1
     9     5    19    1
    10     5    24    1
    11     6    20    2
    12     7    24    2
    13     8     9   ar
    14     8    11   ar
    15     9    12   ar
    16    10    12   ar
    17    10    13   ar
    18    10    15    1
    19    11    13   ar
    20    12    29    1
    21    13    30    1
    22    14    31    1
    23    14    32    1
    24    15    16    2
    25    15    33    1
    26    16    17    1
    27    16    34    1
    28    17    35    1
    29    17    36    1
    30    18    19    1
    31    18    20    1
    32    18    22    2
    33    19    37    1
    34    19    38    1
    35    21    39    1
    36    21    40    1
    37    21    41    1
    38    22    25    1
    39    22    42    1
    40    23    24    1
    41    23    26    1
    42    23    27    2
    43    25    43    1
    44    25    44    1
    45    25    45    1
    46    26    46    1
    47    26    47    1
    48    26    48    1
    49    27    28    1
    50    27    49    1
    51    28    50    1
    52    28    51    1
    53    28    52    1
