@<TRIPOS>MOLECULE
IMPHY017165
 13 13 0 0 0
SMALL
GASTEIGER

@<TRIPOS>ATOM
      1 N           2.8660    1.3450    0.0000 N.pl3   1  UNL1       -0.3579
      2 N           2.8660   -1.6550    0.0000 N.ar    1  UNL1       -0.2631
      3 C           2.8660    0.3450    0.0000 C.ar    1  UNL1        0.0274
      4 C           2.0000   -0.1550    0.0000 C.ar    1  UNL1       -0.0229
      5 C           3.7320   -0.1550    0.0000 C.ar    1  UNL1       -0.0229
      6 C           2.0000   -1.1550    0.0000 C.ar    1  UNL1        0.0293
      7 C           3.7320   -1.1550    0.0000 C.ar    1  UNL1        0.0293
      8 H           1.4631    0.1550    0.0000 H       1  UNL1        0.0651
      9 H           4.2690    0.1550    0.0000 H       1  UNL1        0.0651
     10 H           1.4631   -1.4650    0.0000 H       1  UNL1        0.0830
     11 H           4.2690   -1.4650    0.0000 H       1  UNL1        0.0830
     12 H           3.4030    1.6550    0.0000 H       1  UNL1        0.1423
     13 H           2.3291    1.6550    0.0000 H       1  UNL1        0.1423
@<TRIPOS>BOND
     1     1     3    1
     2     1    12    1
     3     1    13    1
     4     2     6   ar
     5     2     7   ar
     6     3     4   ar
     7     3     5   ar
     8     4     6   ar
     9     4     8    1
    10     5     7   ar
    11     5     9    1
    12     6    10    1
    13     7    11    1
