@<TRIPOS>MOLECULE
IMPHY015433
 40 40 0 0 0
SMALL
GASTEIGER

@<TRIPOS>ATOM
      1 O           4.5981    0.0000    0.0000 O.3     1  UNL1       -0.4218
      2 O           6.3301   -1.0000    0.0000 O.3     1  UNL1       -0.4912
      3 O           6.3301    0.0000    0.0000 O.2     1  UNL1       -0.2504
      4 C           2.8660   -1.0000    0.0000 C.3     1  UNL1       -0.0179
      5 C           3.7320   -1.5000    0.0000 C.ar    1  UNL1        0.0012
      6 C           4.5981   -1.0000    0.0000 C.ar    1  UNL1        0.1766
      7 C           2.0000   -1.5000    0.0000 C.3     1  UNL1       -0.0585
      8 C           2.8660    0.0000    0.0000 C.3     1  UNL1       -0.0585
      9 C           3.7320   -2.5000    0.0000 C.ar    1  UNL1       -0.0544
     10 C           5.4641   -1.5000    0.0000 C.ar    1  UNL1        0.1654
     11 C           5.4641   -2.5000    0.0000 C.ar    1  UNL1       -0.0051
     12 C           4.5981   -3.0000    0.0000 C.ar    1  UNL1       -0.0549
     13 C           5.4641    1.5000    0.0000 C.3     1  UNL1        0.0451
     14 C           6.3301   -3.0000    0.0000 C.3     1  UNL1       -0.0361
     15 C           5.4641    0.5000    0.0000 C.2     1  UNL1        0.3124
     16 C           6.3301    2.0000    0.0000 C.3     1  UNL1       -0.0458
     17 C           6.3301    3.0000    0.0000 C.3     1  UNL1       -0.0648
     18 C           7.1962   -1.5000    0.0000 C.3     1  UNL1        0.0790
     19 H           2.8660   -1.6200    0.0000 H       1  UNL1        0.0345
     20 H           3.1951   -2.8100    0.0000 H       1  UNL1        0.0622
     21 H           1.6900   -0.9631    0.0000 H       1  UNL1        0.0235
     22 H           1.4631   -1.8100    0.0000 H       1  UNL1        0.0235
     23 H           2.3100   -2.0369    0.0000 H       1  UNL1        0.0235
     24 H           3.4860    0.0000    0.0000 H       1  UNL1        0.0235
     25 H           2.8660    0.6200    0.0000 H       1  UNL1        0.0235
     26 H           2.2460    0.0000    0.0000 H       1  UNL1        0.0235
     27 H           4.5981   -3.6200    0.0000 H       1  UNL1        0.0621
     28 H           5.2520    2.0826    0.0000 H       1  UNL1        0.0378
     29 H           4.8535    1.3923    0.0000 H       1  UNL1        0.0378
     30 H           6.0201   -3.5369    0.0000 H       1  UNL1        0.0279
     31 H           6.8671   -3.3100    0.0000 H       1  UNL1        0.0279
     32 H           6.6401   -2.4631    0.0000 H       1  UNL1        0.0279
     33 H           6.5422    1.4174    0.0000 H       1  UNL1        0.0268
     34 H           6.9407    2.1077    0.0000 H       1  UNL1        0.0268
     35 H           6.9501    3.0000    0.0000 H       1  UNL1        0.0230
     36 H           6.3301    3.6200    0.0000 H       1  UNL1        0.0230
     37 H           5.7101    3.0000    0.0000 H       1  UNL1        0.0230
     38 H           6.8862   -2.0369    0.0000 H       1  UNL1        0.0660
     39 H           7.7331   -1.8100    0.0000 H       1  UNL1        0.0660
     40 H           7.5062   -0.9631    0.0000 H       1  UNL1        0.0660
@<TRIPOS>BOND
     1     1     6    1
     2     1    15    1
     3     2    10    1
     4     2    18    1
     5     3    15    2
     6     4     5    1
     7     4     7    1
     8     4     8    1
     9     4    19    1
    10     5     6   ar
    11     5     9   ar
    12     6    10   ar
    13     7    21    1
    14     7    22    1
    15     7    23    1
    16     8    24    1
    17     8    25    1
    18     8    26    1
    19     9    12   ar
    20     9    20    1
    21    10    11   ar
    22    11    12   ar
    23    11    14    1
    24    12    27    1
    25    13    15    1
    26    13    16    1
    27    13    28    1
    28    13    29    1
    29    14    30    1
    30    14    31    1
    31    14    32    1
    32    16    17    1
    33    16    33    1
    34    16    34    1
    35    17    35    1
    36    17    36    1
    37    17    37    1
    38    18    38    1
    39    18    39    1
    40    18    40    1
