@<TRIPOS>MOLECULE
IMPHY013701
 89 94 0 0 0
SMALL
GASTEIGER

@<TRIPOS>ATOM
      1 O           6.8671   -4.7820    0.0000 O.3     1  UNL1       -0.3313
      2 O           4.2690   -7.2820    0.0000 O.3     1  UNL1       -0.3431
      3 O           6.0010   -7.2820    0.0000 O.3     1  UNL1       -0.3461
      4 O           7.7331   -7.2820    0.0000 O.3     1  UNL1       -0.3865
      5 O           9.4651   -6.2820    0.0000 O.3     1  UNL1       -0.3864
      6 O           7.7331   -3.2820    0.0000 O.3     1  UNL1       -0.4606
      7 O           9.4651   -4.2820    0.0000 O.3     1  UNL1       -0.3829
      8 O           6.0010   -9.2820    0.0000 O.3     1  UNL1       -0.3841
      9 O           4.2690  -10.2820    0.0000 O.3     1  UNL1       -0.3864
     10 O           2.5369   -9.2820    0.0000 O.3     1  UNL1       -0.3866
     11 O           5.9589   -0.2300    0.0000 O.2     1  UNL1       -0.4544
     12 O           4.1934   -3.2547    0.0000 O.3     1  UNL1       -0.5058
     13 O           3.3550   -1.7200    0.0000 O.2     1  UNL1       -0.2869
     14 O           5.1102    4.2733    0.0000 O.3     1  UNL1       -0.4228
     15 O           3.3782    4.2800    0.0000 O.2     1  UNL1       -0.2452
     16 O           5.1295    9.2733    0.0000 O.3     1  UNL1       -0.5033
     17 O           3.4013   10.2799    0.0000 O.3     1  UNL1       -0.5033
     18 C           6.8671   -5.7820    0.0000 C.3     1  UNL1        0.1144
     19 C           7.7331   -6.2820    0.0000 C.3     1  UNL1        0.1120
     20 C           8.5991   -5.7820    0.0000 C.3     1  UNL1        0.1152
     21 C           8.5991   -4.7820    0.0000 C.3     1  UNL1        0.1454
     22 C           5.1350   -8.7820    0.0000 C.3     1  UNL1        0.1341
     23 C           5.1350   -7.7820    0.0000 C.3     1  UNL1        0.1879
     24 C           4.2690   -9.2820    0.0000 C.3     1  UNL1        0.1140
     25 C           3.4030   -8.7820    0.0000 C.3     1  UNL1        0.1095
     26 C           7.7331   -4.2820    0.0000 C.3     1  UNL1        0.2308
     27 C           3.4030   -7.7820    0.0000 C.3     1  UNL1        0.0873
     28 C           6.0010   -6.2820    0.0000 C.3     1  UNL1        0.0796
     29 C           2.5369   -7.2820    0.0000 C.3     1  UNL1       -0.0361
     30 C           6.8671   -2.7820    0.0000 C.ar    1  UNL1        0.1310
     31 C           6.8630   -1.7404    0.0000 C.ar    1  UNL1        0.0235
     32 C           5.9630   -3.2993    0.0000 C.ar    1  UNL1        0.0226
     33 C           5.9550   -1.2300    0.0000 C.ar    1  UNL1        0.1462
     34 C           5.0670   -2.7681    0.0000 C.ar    1  UNL1        0.1347
     35 C           5.0871   -1.7267    0.0000 C.ar    1  UNL1        0.1055
     36 C           4.2230   -1.2233    0.0000 C.ar    1  UNL1        0.1966
     37 C           5.0948    0.2733    0.0000 C.ar    1  UNL1        0.1392
     38 C           4.2268   -0.2233    0.0000 C.ar    1  UNL1        0.0288
     39 C           5.0986    1.2733    0.0000 C.ar    1  UNL1        0.0176
     40 C           4.2345    1.7766    0.0000 C.ar    1  UNL1       -0.0476
     41 C           5.9666    1.7700    0.0000 C.ar    1  UNL1       -0.0476
     42 C           4.2384    2.7766    0.0000 C.ar    1  UNL1       -0.0185
     43 C           5.9704    2.7700    0.0000 C.ar    1  UNL1       -0.0185
     44 C           5.1063    3.2733    0.0000 C.ar    1  UNL1        0.1320
     45 C           4.2461    4.7766    0.0000 C.2     1  UNL1        0.3372
     46 C           4.2500    5.7766    0.0000 C.2     1  UNL1        0.0235
     47 C           3.3859    6.2800    0.0000 C.2     1  UNL1       -0.0477
     48 C           3.3897    7.2799    0.0000 C.ar    1  UNL1       -0.0211
     49 C           4.2577    7.7766    0.0000 C.ar    1  UNL1       -0.0094
     50 C           2.5256    7.7833    0.0000 C.ar    1  UNL1       -0.0509
     51 C           4.2615    8.7766    0.0000 C.ar    1  UNL1        0.1588
     52 C           2.5295    8.7833    0.0000 C.ar    1  UNL1       -0.0160
     53 C           3.3974    9.2799    0.0000 C.ar    1  UNL1        0.1582
     54 H           6.3301   -5.4720    0.0000 H       1  UNL1        0.0647
     55 H           8.2700   -6.5920    0.0000 H       1  UNL1        0.0647
     56 H           9.1360   -5.4720    0.0000 H       1  UNL1        0.0648
     57 H           8.5991   -4.1620    0.0000 H       1  UNL1        0.0683
     58 H           5.1350   -9.4020    0.0000 H       1  UNL1        0.0671
     59 H           5.1350   -7.1620    0.0000 H       1  UNL1        0.0937
     60 H           3.7320   -9.5920    0.0000 H       1  UNL1        0.0648
     61 H           3.4030   -9.4020    0.0000 H       1  UNL1        0.0646
     62 H           7.1962   -3.9720    0.0000 H       1  UNL1        0.1084
     63 H           3.4030   -7.1620    0.0000 H       1  UNL1        0.0621
     64 H           5.7890   -5.6994    0.0000 H       1  UNL1        0.0587
     65 H           5.3905   -6.3896    0.0000 H       1  UNL1        0.0587
     66 H           2.8469   -6.7450    0.0000 H       1  UNL1        0.0255
     67 H           2.0000   -6.9720    0.0000 H       1  UNL1        0.0255
     68 H           2.2269   -7.8189    0.0000 H       1  UNL1        0.0255
     69 H           8.2700   -7.5920    0.0000 H       1  UNL1        0.2100
     70 H          10.0021   -5.9720    0.0000 H       1  UNL1        0.2100
     71 H           9.4651   -3.6620    0.0000 H       1  UNL1        0.2102
     72 H           6.5380   -8.9720    0.0000 H       1  UNL1        0.2101
     73 H           3.7320  -10.5920    0.0000 H       1  UNL1        0.2100
     74 H           2.0000   -8.9720    0.0000 H       1  UNL1        0.2100
     75 H           7.3976   -1.4262    0.0000 H       1  UNL1        0.0691
     76 H           5.9582   -3.9193    0.0000 H       1  UNL1        0.0691
     77 H           3.6911    0.0887    0.0000 H       1  UNL1        0.0693
     78 H           4.1838   -3.8746    0.0000 H       1  UNL1        0.2922
     79 H           3.6964    1.4687    0.0000 H       1  UNL1        0.0626
     80 H           6.5023    1.4579    0.0000 H       1  UNL1        0.0626
     81 H           3.7026    3.0887    0.0000 H       1  UNL1        0.0654
     82 H           6.5085    3.0779    0.0000 H       1  UNL1        0.0654
     83 H           4.7881    6.0845    0.0000 H       1  UNL1        0.0689
     84 H           2.8477    5.9720    0.0000 H       1  UNL1        0.0626
     85 H           4.7934    7.4645    0.0000 H       1  UNL1        0.0661
     86 H           1.9875    7.4754    0.0000 H       1  UNL1        0.0625
     87 H           1.9937    9.0953    0.0000 H       1  UNL1        0.0655
     88 H           5.1318    9.8932    0.0000 H       1  UNL1        0.2923
     89 H           2.8655   10.5920    0.0000 H       1  UNL1        0.2923
@<TRIPOS>BOND
     1     1    18    1
     2     1    26    1
     3     2    23    1
     4     2    27    1
     5     3    23    1
     6     3    28    1
     7     4    19    1
     8     4    69    1
     9     5    20    1
    10     5    70    1
    11     6    26    1
    12     6    30    1
    13     7    21    1
    14     7    71    1
    15     8    22    1
    16     8    72    1
    17     9    24    1
    18     9    73    1
    19    10    25    1
    20    10    74    1
    21    11    33   ar
    22    11    37   ar
    23    12    34    1
    24    12    78    1
    25    13    36    2
    26    14    44    1
    27    14    45    1
    28    15    45    2
    29    16    51    1
    30    16    88    1
    31    17    53    1
    32    17    89    1
    33    18    19    1
    34    18    28    1
    35    18    54    1
    36    19    20    1
    37    19    55    1
    38    20    21    1
    39    20    56    1
    40    21    26    1
    41    21    57    1
    42    22    23    1
    43    22    24    1
    44    22    58    1
    45    23    59    1
    46    24    25    1
    47    24    60    1
    48    25    27    1
    49    25    61    1
    50    26    62    1
    51    27    29    1
    52    27    63    1
    53    28    64    1
    54    28    65    1
    55    29    66    1
    56    29    67    1
    57    29    68    1
    58    30    31   ar
    59    30    32   ar
    60    31    33   ar
    61    31    75    1
    62    32    34   ar
    63    32    76    1
    64    33    35   ar
    65    34    35   ar
    66    35    36   ar
    67    36    38   ar
    68    37    38   ar
    69    37    39    1
    70    38    77    1
    71    39    40   ar
    72    39    41   ar
    73    40    42   ar
    74    40    79    1
    75    41    43   ar
    76    41    80    1
    77    42    44   ar
    78    42    81    1
    79    43    44   ar
    80    43    82    1
    81    45    46    1
    82    46    47    2
    83    46    83    1
    84    47    48    1
    85    47    84    1
    86    48    49   ar
    87    48    50   ar
    88    49    51   ar
    89    49    85    1
    90    50    52   ar
    91    50    86    1
    92    51    53   ar
    93    52    53   ar
    94    52    87    1
