@<TRIPOS>MOLECULE
IMPHY012917
 52 53 0 0 0
SMALL
GASTEIGER

@<TRIPOS>ATOM
      1 O           4.4150   -2.7156    0.0000 O.3     1  UNL1       -0.4606
      2 O           6.7506    2.1325    0.0000 O.3     1  UNL1       -0.4639
      3 O           2.8452   -1.9836    0.0000 O.2     1  UNL1       -0.2505
      4 O           6.0461    3.7148    0.0000 O.2     1  UNL1       -0.2506
      5 C           6.2103   -1.2173    0.0000 C.3     1  UNL1        0.0137
      6 C           5.7325    0.7312    0.0000 C.3     1  UNL1        0.0138
      7 C           6.4692   -0.2514    0.0000 C.3     1  UNL1       -0.0285
      8 C           4.8376   -1.8093    0.0000 C.3     1  UNL1        0.1093
      9 C           7.6093   -1.7261    0.0000 C.3     1  UNL1       -0.0434
     10 C           4.4956   -0.8696    0.0000 C.3     1  UNL1       -0.0117
     11 C           7.8681   -0.7602    0.0000 C.3     1  UNL1       -0.0488
     12 C           5.8371    1.7257    0.0000 C.3     1  UNL1        0.0987
     13 C           5.9515   -2.1832    0.0000 C.3     1  UNL1       -0.0556
     14 C           4.8190    1.1380    0.0000 C.3     1  UNL1       -0.0556
     15 C           3.4188   -2.8028    0.0000 C.2     1  UNL1        0.3099
     16 C           6.8551    3.1270    0.0000 C.2     1  UNL1        0.3097
     17 C           2.9962   -3.7091    0.0000 C.3     1  UNL1        0.0508
     18 C           7.7687    3.5337    0.0000 C.3     1  UNL1        0.0508
     19 C           2.0000   -3.7963    0.0000 C.3     1  UNL1       -0.0525
     20 C           3.5698   -4.5283    0.0000 C.3     1  UNL1       -0.0525
     21 C           7.8732    4.5283    0.0000 C.3     1  UNL1       -0.0525
     22 C           8.5777    2.9460    0.0000 C.3     1  UNL1       -0.0525
     23 H           6.6892    0.5696    0.0000 H       1  UNL1        0.0308
     24 H           5.2696   -2.2541    0.0000 H       1  UNL1        0.0739
     25 H           7.4143   -2.3147    0.0000 H       1  UNL1        0.0272
     26 H           8.2032   -1.9039    0.0000 H       1  UNL1        0.0272
     27 H           4.3013   -0.2809    0.0000 H       1  UNL1        0.0304
     28 H           3.9098   -1.0728    0.0000 H       1  UNL1        0.0304
     29 H           8.4621   -0.9380    0.0000 H       1  UNL1        0.0268
     30 H           8.0630   -0.1717    0.0000 H       1  UNL1        0.0268
     31 H           5.6871    2.3273    0.0000 H       1  UNL1        0.0703
     32 H           5.2186    1.6825    0.0000 H       1  UNL1        0.0703
     33 H           5.3526   -2.0228    0.0000 H       1  UNL1        0.0236
     34 H           5.7910   -2.7821    0.0000 H       1  UNL1        0.0236
     35 H           6.5504   -2.3437    0.0000 H       1  UNL1        0.0236
     36 H           5.0712    1.7044    0.0000 H       1  UNL1        0.0236
     37 H           4.2526    1.3901    0.0000 H       1  UNL1        0.0236
     38 H           4.5668    0.5716    0.0000 H       1  UNL1        0.0236
     39 H           2.7342   -4.2710    0.0000 H       1  UNL1        0.0408
     40 H           8.3351    3.7859    0.0000 H       1  UNL1        0.0408
     41 H           1.9460   -3.1786    0.0000 H       1  UNL1        0.0237
     42 H           1.3824   -3.8503    0.0000 H       1  UNL1        0.0237
     43 H           2.0540   -4.4139    0.0000 H       1  UNL1        0.0237
     44 H           3.0619   -4.8839    0.0000 H       1  UNL1        0.0237
     45 H           3.9254   -5.0361    0.0000 H       1  UNL1        0.0237
     46 H           4.0776   -4.1726    0.0000 H       1  UNL1        0.0237
     47 H           8.4898    4.4634    0.0000 H       1  UNL1        0.0237
     48 H           7.9380    5.1449    0.0000 H       1  UNL1        0.0237
     49 H           7.2566    4.5931    0.0000 H       1  UNL1        0.0237
     50 H           8.2133    2.4444    0.0000 H       1  UNL1        0.0237
     51 H           9.0793    2.5815    0.0000 H       1  UNL1        0.0237
     52 H           8.9421    3.4475    0.0000 H       1  UNL1        0.0237
@<TRIPOS>BOND
     1     8     1    1
     2     1    15    1
     3     2    12    1
     4     2    16    1
     5     3    15    2
     6     4    16    2
     7     5     6    1
     8     5     8    1
     9     5     9    1
    10     5    13    1
    11     6     7    1
    12     6    12    1
    13     6    14    1
    14     7    10    1
    15     7    11    1
    16     7    23    1
    17     8    10    1
    18     8    24    1
    19     9    11    1
    20     9    25    1
    21     9    26    1
    22    10    27    1
    23    10    28    1
    24    11    29    1
    25    11    30    1
    26    12    31    1
    27    12    32    1
    28    13    33    1
    29    13    34    1
    30    13    35    1
    31    14    36    1
    32    14    37    1
    33    14    38    1
    34    15    17    1
    35    16    18    1
    36    17    19    1
    37    17    20    1
    38    17    39    1
    39    18    21    1
    40    18    22    1
    41    18    40    1
    42    19    41    1
    43    19    42    1
    44    19    43    1
    45    20    44    1
    46    20    45    1
    47    20    46    1
    48    21    47    1
    49    21    48    1
    50    21    49    1
    51    22    50    1
    52    22    51    1
    53    22    52    1
