@<TRIPOS>MOLECULE
IMPHY016247
 24 24 0 0 0
SMALL
GASTEIGER

@<TRIPOS>ATOM
      1 O           5.4641    1.2500    0.0000 O.3     1  UNL1       -0.4912
      2 O           7.1962    0.2500    0.0000 O.3     1  UNL1       -0.5033
      3 C           4.5981   -0.2500    0.0000 C.ar    1  UNL1        0.0016
      4 C           3.7320    0.2500    0.0000 C.3     1  UNL1       -0.0062
      5 C           5.4641    0.2500    0.0000 C.ar    1  UNL1        0.1647
      6 C           4.5981   -1.2500    0.0000 C.ar    1  UNL1       -0.0546
      7 C           6.3301   -0.2500    0.0000 C.ar    1  UNL1        0.1587
      8 C           5.4641   -1.7500    0.0000 C.ar    1  UNL1       -0.0578
      9 C           6.3301   -1.2500    0.0000 C.ar    1  UNL1       -0.0165
     10 C           2.8660   -0.2500    0.0000 C.2     1  UNL1       -0.0867
     11 C           6.3301    1.7500    0.0000 C.3     1  UNL1        0.0790
     12 C           2.0000    0.2500    0.0000 C.2     1  UNL1       -0.1023
     13 H           4.1306    0.7249    0.0000 H       1  UNL1        0.0357
     14 H           3.3335    0.7249    0.0000 H       1  UNL1        0.0357
     15 H           4.0611   -1.5600    0.0000 H       1  UNL1        0.0622
     16 H           5.4641   -2.3700    0.0000 H       1  UNL1        0.0619
     17 H           6.8671   -1.5600    0.0000 H       1  UNL1        0.0655
     18 H           2.8660   -0.8700    0.0000 H       1  UNL1        0.0570
     19 H           6.6401    1.2131    0.0000 H       1  UNL1        0.0660
     20 H           6.8671    2.0600    0.0000 H       1  UNL1        0.0660
     21 H           6.0201    2.2869    0.0000 H       1  UNL1        0.0660
     22 H           7.7331   -0.0600    0.0000 H       1  UNL1        0.2923
     23 H           2.0000    0.8700    0.0000 H       1  UNL1        0.0532
     24 H           1.4631   -0.0600    0.0000 H       1  UNL1        0.0532
@<TRIPOS>BOND
     1     1     5    1
     2     1    11    1
     3     2     7    1
     4     2    22    1
     5     3     4    1
     6     3     5   ar
     7     3     6   ar
     8     4    10    1
     9     4    13    1
    10     4    14    1
    11     5     7   ar
    12     6     8   ar
    13     6    15    1
    14     7     9   ar
    15     8     9   ar
    16     8    16    1
    17     9    17    1
    18    10    12    2
    19    10    18    1
    20    11    19    1
    21    11    20    1
    22    11    21    1
    23    12    23    1
    24    12    24    1
