@<TRIPOS>MOLECULE
IMPHY004964
 38 39 0 0 0
SMALL
GASTEIGER

@<TRIPOS>ATOM
      1 O           2.8660    1.6550    0.0000 O.3     1  UNL1       -0.3913
      2 O           2.0000    0.1550    0.0000 O.2     1  UNL1       -0.2920
      3 O           2.8660   -4.3450    0.0000 O.3     1  UNL1       -0.5068
      4 C           3.7320    1.1550    0.0000 C.3     1  UNL1        0.0625
      5 C           4.5981    1.6550    0.0000 C.3     1  UNL1       -0.0225
      6 C           4.5981    2.6550    0.0000 C.3     1  UNL1       -0.0253
      7 C           3.7320    0.1550    0.0000 C.3     1  UNL1        0.0365
      8 C           5.4641    3.1550    0.0000 C.ar    1  UNL1       -0.0473
      9 C           2.8660   -0.3450    0.0000 C.2     1  UNL1        0.1656
     10 C           2.8660   -1.3450    0.0000 C.ar    1  UNL1        0.0177
     11 C           6.3301    2.6550    0.0000 C.ar    1  UNL1       -0.0586
     12 C           5.4641    4.1550    0.0000 C.ar    1  UNL1       -0.0586
     13 C           2.0000   -1.8450    0.0000 C.ar    1  UNL1       -0.0478
     14 C           3.7320   -1.8450    0.0000 C.ar    1  UNL1       -0.0478
     15 C           7.1962    3.1550    0.0000 C.ar    1  UNL1       -0.0615
     16 C           6.3301    4.6550    0.0000 C.ar    1  UNL1       -0.0615
     17 C           7.1962    4.1550    0.0000 C.ar    1  UNL1       -0.0617
     18 C           2.0000   -2.8450    0.0000 C.ar    1  UNL1       -0.0195
     19 C           3.7320   -2.8450    0.0000 C.ar    1  UNL1       -0.0195
     20 C           2.8660   -3.3450    0.0000 C.ar    1  UNL1        0.1169
     21 H           3.7320    2.0050    0.0000 H       1  UNL1        0.0597
     22 H           4.8101    1.0724    0.0000 H       1  UNL1        0.0293
     23 H           5.2087    1.7627    0.0000 H       1  UNL1        0.0293
     24 H           4.3860    3.2376    0.0000 H       1  UNL1        0.0314
     25 H           3.9875    2.5473    0.0000 H       1  UNL1        0.0314
     26 H           3.9441   -0.4276    0.0000 H       1  UNL1        0.0370
     27 H           4.3426    0.2627    0.0000 H       1  UNL1        0.0370
     28 H           2.8660    2.2750    0.0000 H       1  UNL1        0.2098
     29 H           6.3301    2.0350    0.0000 H       1  UNL1        0.0620
     30 H           4.9272    4.4650    0.0000 H       1  UNL1        0.0620
     31 H           1.4631   -1.5350    0.0000 H       1  UNL1        0.0626
     32 H           4.2690   -1.5350    0.0000 H       1  UNL1        0.0626
     33 H           7.7331    2.8450    0.0000 H       1  UNL1        0.0618
     34 H           6.3301    5.2750    0.0000 H       1  UNL1        0.0618
     35 H           7.7331    4.4650    0.0000 H       1  UNL1        0.0618
     36 H           1.4631   -3.1550    0.0000 H       1  UNL1        0.0654
     37 H           4.2690   -3.1550    0.0000 H       1  UNL1        0.0654
     38 H           2.3291   -4.6550    0.0000 H       1  UNL1        0.2921
@<TRIPOS>BOND
     1     1     4    1
     2     1    28    1
     3     2     9    2
     4     3    20    1
     5     3    38    1
     6     4     5    1
     7     4     7    1
     8     4    21    1
     9     5     6    1
    10     5    22    1
    11     5    23    1
    12     6     8    1
    13     6    24    1
    14     6    25    1
    15     7     9    1
    16     7    26    1
    17     7    27    1
    18     8    11   ar
    19     8    12   ar
    20     9    10    1
    21    10    13   ar
    22    10    14   ar
    23    11    15   ar
    24    11    29    1
    25    12    16   ar
    26    12    30    1
    27    13    18   ar
    28    13    31    1
    29    14    19   ar
    30    14    32    1
    31    15    17   ar
    32    15    33    1
    33    16    17   ar
    34    16    34    1
    35    17    35    1
    36    18    20   ar
    37    18    36    1
    38    19    20   ar
    39    19    37    1
