@<TRIPOS>MOLECULE
IMPHY011009
 19 19 0 0 0
SMALL
GASTEIGER

@<TRIPOS>ATOM
      1 C           2.0000   -1.0000    0.0000 C.3     1  UNL1       -0.0491
      2 C           2.8660   -1.5000    0.0000 C.3     1  UNL1       -0.0493
      3 C           2.0000    0.0000    0.0000 C.3     1  UNL1       -0.0320
      4 C           3.7320   -1.0000    0.0000 C.3     1  UNL1       -0.0345
      5 C           2.8660    0.5000    0.0000 C.2     1  UNL1       -0.0765
      6 C           3.7320    0.0000    0.0000 C.2     1  UNL1       -0.0850
      7 C           2.8660    1.5000    0.0000 C.3     1  UNL1       -0.0438
      8 H           1.3894   -0.8923    0.0000 H       1  UNL1        0.0268
      9 H           1.7880   -1.5826    0.0000 H       1  UNL1        0.0268
     10 H           2.4675   -1.9750    0.0000 H       1  UNL1        0.0268
     11 H           3.2646   -1.9750    0.0000 H       1  UNL1        0.0268
     12 H           1.7880    0.5826    0.0000 H       1  UNL1        0.0310
     13 H           1.3894   -0.1077    0.0000 H       1  UNL1        0.0310
     14 H           3.9441   -1.5826    0.0000 H       1  UNL1        0.0307
     15 H           4.3426   -0.8923    0.0000 H       1  UNL1        0.0307
     16 H           4.2690    0.3100    0.0000 H       1  UNL1        0.0572
     17 H           3.4860    1.5000    0.0000 H       1  UNL1        0.0274
     18 H           2.8660    2.1200    0.0000 H       1  UNL1        0.0274
     19 H           2.2460    1.5000    0.0000 H       1  UNL1        0.0274
@<TRIPOS>BOND
     1     1     2    1
     2     1     3    1
     3     1     8    1
     4     1     9    1
     5     2     4    1
     6     2    10    1
     7     2    11    1
     8     3     5    1
     9     3    12    1
    10     3    13    1
    11     4     6    1
    12     4    14    1
    13     4    15    1
    14     5     6    2
    15     5     7    1
    16     6    16    1
    17     7    17    1
    18     7    18    1
    19     7    19    1
