@<TRIPOS>MOLECULE
IMPHY017325
 36 35 0 0 0
SMALL
GASTEIGER

@<TRIPOS>ATOM
      1 C           5.4641    0.2500    0.0000 C.3     1  UNL1       -0.0531
      2 C           6.3301   -0.2500    0.0000 C.3     1  UNL1       -0.0530
      3 C           4.5981   -0.2500    0.0000 C.3     1  UNL1       -0.0531
      4 C           7.1962    0.2500    0.0000 C.3     1  UNL1       -0.0528
      5 C           3.7320    0.2500    0.0000 C.3     1  UNL1       -0.0533
      6 C           8.0622   -0.2500    0.0000 C.3     1  UNL1       -0.0496
      7 C           2.8660   -0.2500    0.0000 C.3     1  UNL1       -0.0559
      8 C           8.9282    0.2500    0.0000 C.3     1  UNL1       -0.0348
      9 C           2.0000    0.2500    0.0000 C.3     1  UNL1       -0.0653
     10 C           9.7942   -0.2500    0.0000 C.2     1  UNL1       -0.0882
     11 C          10.6603    0.2500    0.0000 C.2     1  UNL1       -0.0910
     12 C          11.5263   -0.2500    0.0000 C.3     1  UNL1       -0.0468
     13 H           5.8626    0.7249    0.0000 H       1  UNL1        0.0265
     14 H           5.0656    0.7249    0.0000 H       1  UNL1        0.0265
     15 H           5.9316   -0.7249    0.0000 H       1  UNL1        0.0265
     16 H           6.7287   -0.7249    0.0000 H       1  UNL1        0.0265
     17 H           4.1996   -0.7249    0.0000 H       1  UNL1        0.0265
     18 H           4.9966   -0.7249    0.0000 H       1  UNL1        0.0265
     19 H           7.5947    0.7249    0.0000 H       1  UNL1        0.0265
     20 H           6.7976    0.7249    0.0000 H       1  UNL1        0.0265
     21 H           4.1306    0.7249    0.0000 H       1  UNL1        0.0265
     22 H           3.3335    0.7249    0.0000 H       1  UNL1        0.0265
     23 H           7.6636   -0.7249    0.0000 H       1  UNL1        0.0268
     24 H           8.4607   -0.7249    0.0000 H       1  UNL1        0.0268
     25 H           2.4675   -0.7249    0.0000 H       1  UNL1        0.0263
     26 H           3.2646   -0.7249    0.0000 H       1  UNL1        0.0263
     27 H           9.3267    0.7249    0.0000 H       1  UNL1        0.0307
     28 H           8.5297    0.7249    0.0000 H       1  UNL1        0.0307
     29 H           2.3100    0.7869    0.0000 H       1  UNL1        0.0230
     30 H           1.4631    0.5600    0.0000 H       1  UNL1        0.0230
     31 H           1.6900   -0.2869    0.0000 H       1  UNL1        0.0230
     32 H           9.7942   -0.8700    0.0000 H       1  UNL1        0.0569
     33 H          10.6603    0.8700    0.0000 H       1  UNL1        0.0566
     34 H          11.2163   -0.7869    0.0000 H       1  UNL1        0.0272
     35 H          12.0632   -0.5600    0.0000 H       1  UNL1        0.0272
     36 H          11.8363    0.2869    0.0000 H       1  UNL1        0.0272
@<TRIPOS>BOND
     1     1     2    1
     2     1     3    1
     3     1    13    1
     4     1    14    1
     5     2     4    1
     6     2    15    1
     7     2    16    1
     8     3     5    1
     9     3    17    1
    10     3    18    1
    11     4     6    1
    12     4    19    1
    13     4    20    1
    14     5     7    1
    15     5    21    1
    16     5    22    1
    17     6     8    1
    18     6    23    1
    19     6    24    1
    20     7     9    1
    21     7    25    1
    22     7    26    1
    23     8    10    1
    24     8    27    1
    25     8    28    1
    26     9    29    1
    27     9    30    1
    28     9    31    1
    29    10    11    2
    30    10    32    1
    31    11    12    1
    32    11    33    1
    33    12    34    1
    34    12    35    1
    35    12    36    1
