@<TRIPOS>MOLECULE
IMPHY014157
 77 81 0 0 0
SMALL
GASTEIGER

@<TRIPOS>ATOM
      1 O           8.6322    2.4271    0.0000 O.3     1  UNL1       -0.3877
      2 O           6.8671   -2.7765    0.0000 O.3     1  UNL1       -0.3451
      3 O           5.4534    4.9248    0.0000 O.2     1  UNL1       -0.2974
      4 O           5.1350   -2.7765    0.0000 O.3     1  UNL1       -0.3405
      5 O           6.8671   -4.7765    0.0000 O.3     1  UNL1       -0.3841
      6 O           5.1350   -5.7765    0.0000 O.3     1  UNL1       -0.3864
      7 O           3.4030   -4.7765    0.0000 O.3     1  UNL1       -0.3865
      8 O           2.5369   -3.2765    0.0000 O.3     1  UNL1       -0.3924
      9 C           7.7643    2.9238    0.0000 C.3     1  UNL1        0.0755
     10 C           6.8963    3.4204    0.0000 C.3     1  UNL1        0.0065
     11 C           7.7681    1.9238    0.0000 C.3     1  UNL1       -0.0046
     12 C           6.9040    1.4204    0.0000 C.3     1  UNL1       -0.0262
     13 C           6.8920    0.3789    0.0000 C.3     1  UNL1       -0.0077
     14 C           7.1018    4.3930    0.0000 C.3     1  UNL1        0.0253
     15 C           6.0322    2.9171    0.0000 C.3     1  UNL1       -0.0441
     16 C           6.0361    1.9171    0.0000 C.3     1  UNL1       -0.0485
     17 C           8.4987    3.5937    0.0000 C.3     1  UNL1       -0.0225
     18 C           8.0901    4.4999    0.0000 C.3     1  UNL1       -0.0403
     19 C           8.6801    1.4204    0.0000 C.3     1  UNL1       -0.0287
     20 C           7.7920   -0.1454    0.0000 C.2     1  UNL1       -0.0648
     21 C           6.0284    3.9171    0.0000 C.3     1  UNL1       -0.0563
     22 C           5.9421   -0.1454    0.0000 C.3     1  UNL1       -0.0413
     23 C           8.6921    0.3789    0.0000 C.2     1  UNL1       -0.0838
     24 C           6.0279    0.8822    0.0000 C.3     1  UNL1       -0.0556
     25 C           7.8046   -1.2304    0.0000 C.3     1  UNL1       -0.0047
     26 C           5.9295   -1.2304    0.0000 C.3     1  UNL1       -0.0254
     27 C           6.4311    5.1348    0.0000 C.2     1  UNL1        0.1340
     28 C           6.8671   -1.7765    0.0000 C.3     1  UNL1        0.0655
     29 C           6.7381    6.0865    0.0000 C.3     1  UNL1       -0.0058
     30 C           6.0010   -3.2765    0.0000 C.3     1  UNL1        0.1882
     31 C           6.0010   -4.2765    0.0000 C.3     1  UNL1        0.1341
     32 C           5.1350   -4.7765    0.0000 C.3     1  UNL1        0.1141
     33 C           4.2690   -3.2765    0.0000 C.3     1  UNL1        0.1130
     34 C           4.2690   -4.2765    0.0000 C.3     1  UNL1        0.1119
     35 C           3.4030   -2.7765    0.0000 C.3     1  UNL1        0.0730
     36 H           8.4993    2.3572    0.0000 H       1  UNL1        0.0335
     37 H           7.6385    0.9926    0.0000 H       1  UNL1        0.0313
     38 H           7.3225    4.9724    0.0000 H       1  UNL1        0.0383
     39 H           5.8179    3.4989    0.0000 H       1  UNL1        0.0272
     40 H           5.4221    2.8071    0.0000 H       1  UNL1        0.0272
     41 H           5.4251    2.0224    0.0000 H       1  UNL1        0.0268
     42 H           5.8263    1.3337    0.0000 H       1  UNL1        0.0268
     43 H           8.8661    3.0942    0.0000 H       1  UNL1        0.0293
     44 H           9.0340    3.9065    0.0000 H       1  UNL1        0.0293
     45 H           8.6790    4.6939    0.0000 H       1  UNL1        0.0273
     46 H           7.9590    5.1059    0.0000 H       1  UNL1        0.0273
     47 H           9.2921    1.3214    0.0000 H       1  UNL1        0.0311
     48 H           8.8824    2.0065    0.0000 H       1  UNL1        0.0311
     49 H           6.3363    4.4552    0.0000 H       1  UNL1        0.0236
     50 H           5.4902    4.2250    0.0000 H       1  UNL1        0.0236
     51 H           5.7204    3.3789    0.0000 H       1  UNL1        0.0236
     52 H           5.7398    0.4406    0.0000 H       1  UNL1        0.0274
     53 H           5.3300   -0.2444    0.0000 H       1  UNL1        0.0274
     54 H           9.2314    0.0730    0.0000 H       1  UNL1        0.0572
     55 H           6.3400    1.4179    0.0000 H       1  UNL1        0.0238
     56 H           5.4922    1.1943    0.0000 H       1  UNL1        0.0238
     57 H           5.7158    0.3465    0.0000 H       1  UNL1        0.0238
     58 H           9.1680    2.7392    0.0000 H       1  UNL1        0.2102
     59 H           8.0204   -1.8116    0.0000 H       1  UNL1        0.0335
     60 H           8.4142   -1.1172    0.0000 H       1  UNL1        0.0335
     61 H           5.3199   -1.1172    0.0000 H       1  UNL1        0.0290
     62 H           5.7137   -1.8116    0.0000 H       1  UNL1        0.0290
     63 H           7.4046   -2.0854    0.0000 H       1  UNL1        0.0600
     64 H           7.3281    5.8961    0.0000 H       1  UNL1        0.0306
     65 H           6.9284    6.6765    0.0000 H       1  UNL1        0.0306
     66 H           6.1480    6.2768    0.0000 H       1  UNL1        0.0306
     67 H           6.0010   -2.6565    0.0000 H       1  UNL1        0.0937
     68 H           6.0010   -4.8965    0.0000 H       1  UNL1        0.0671
     69 H           4.5981   -5.0865    0.0000 H       1  UNL1        0.0648
     70 H           4.2690   -2.6565    0.0000 H       1  UNL1        0.0647
     71 H           4.2690   -4.8965    0.0000 H       1  UNL1        0.0647
     72 H           6.8671   -5.3965    0.0000 H       1  UNL1        0.2101
     73 H           3.8015   -2.3015    0.0000 H       1  UNL1        0.0584
     74 H           3.0044   -2.3015    0.0000 H       1  UNL1        0.0584
     75 H           4.5981   -6.0865    0.0000 H       1  UNL1        0.2100
     76 H           3.4030   -5.3965    0.0000 H       1  UNL1        0.2100
     77 H           2.0000   -2.9665    0.0000 H       1  UNL1        0.2095
@<TRIPOS>BOND
     1     9     1    1
     2     1    58    1
     3    28     2    1
     4    30     2    1
     5     3    27    2
     6     4    30    1
     7     4    33    1
     8    31     5    1
     9     5    72    1
    10    32     6    1
    11     6    75    1
    12    34     7    1
    13     7    76    1
    14     8    35    1
    15     8    77    1
    16     9    10    1
    17     9    11    1
    18     9    17    1
    19    10    14    1
    20    10    15    1
    21    10    21    1
    22    11    12    1
    23    11    19    1
    24    11    36    1
    25    12    13    1
    26    12    16    1
    27    12    37    1
    28    13    20    1
    29    13    22    1
    30    13    24    1
    31    14    18    1
    32    14    27    1
    33    14    38    1
    34    15    16    1
    35    15    39    1
    36    15    40    1
    37    16    41    1
    38    16    42    1
    39    17    18    1
    40    17    43    1
    41    17    44    1
    42    18    45    1
    43    18    46    1
    44    19    23    1
    45    19    47    1
    46    19    48    1
    47    20    23    2
    48    20    25    1
    49    21    49    1
    50    21    50    1
    51    21    51    1
    52    22    26    1
    53    22    52    1
    54    22    53    1
    55    23    54    1
    56    24    55    1
    57    24    56    1
    58    24    57    1
    59    25    28    1
    60    25    59    1
    61    25    60    1
    62    26    28    1
    63    26    61    1
    64    26    62    1
    65    27    29    1
    66    28    63    1
    67    29    64    1
    68    29    65    1
    69    29    66    1
    70    30    31    1
    71    30    67    1
    72    31    32    1
    73    31    68    1
    74    32    34    1
    75    32    69    1
    76    33    34    1
    77    33    35    1
    78    33    70    1
    79    34    71    1
    80    35    73    1
    81    35    74    1
