@<TRIPOS>MOLECULE
IMPHY017169
 14 13 0 0 0
SMALL
GASTEIGER

@<TRIPOS>ATOM
      1 O           2.5369   -0.2500    0.0000 O.3     1  UNL1       -0.3910
      2 O           6.8671    0.2500    0.0000 O.3     1  UNL1       -0.3910
      3 C           4.2690   -0.2500    0.0000 C.2     1  UNL1       -0.0607
      4 C           5.1350    0.2500    0.0000 C.2     1  UNL1       -0.0607
      5 C           3.4030    0.2500    0.0000 C.3     1  UNL1        0.0625
      6 C           6.0010   -0.2500    0.0000 C.3     1  UNL1        0.0625
      7 H           4.2690   -0.8700    0.0000 H       1  UNL1        0.0592
      8 H           5.1350    0.8700    0.0000 H       1  UNL1        0.0592
      9 H           3.8015    0.7249    0.0000 H       1  UNL1        0.0601
     10 H           3.0044    0.7249    0.0000 H       1  UNL1        0.0601
     11 H           5.6025   -0.7249    0.0000 H       1  UNL1        0.0601
     12 H           6.3996   -0.7249    0.0000 H       1  UNL1        0.0601
     13 H           2.0000    0.0600    0.0000 H       1  UNL1        0.2098
     14 H           7.4040   -0.0600    0.0000 H       1  UNL1        0.2098
@<TRIPOS>BOND
     1     1     5    1
     2     1    13    1
     3     2     6    1
     4     2    14    1
     5     3     4    2
     6     3     5    1
     7     3     7    1
     8     4     6    1
     9     4     8    1
    10     5     9    1
    11     5    10    1
    12     6    11    1
    13     6    12    1
