@<TRIPOS>MOLECULE
IMPHY009548
 68 72 0 0 0
SMALL
GASTEIGER

@<TRIPOS>ATOM
      1 O           3.5657   -4.4296    0.0000 O.2     1  UNL1       -0.2962
      2 O           6.0671   -3.9876    0.0000 O.3     1  UNL1       -0.4673
      3 O           4.4931   -4.7103    0.0000 O.2     1  UNL1       -0.2498
      4 O           6.5959    4.8964    0.0000 O.2     1  UNL1       -0.5030
      5 O           7.6278    3.0769    0.0000 O.2     1  UNL1       -0.2840
      6 C           3.9516   -0.2504    0.0000 C.3     1  UNL1        0.0023
      7 C           3.8587   -1.2878    0.0000 C.3     1  UNL1       -0.0239
      8 C           3.1425    0.3374    0.0000 C.3     1  UNL1        0.0029
      9 C           2.9104   -1.7188    0.0000 C.3     1  UNL1       -0.0217
     10 C           2.1846   -0.0715    0.0000 C.3     1  UNL1       -0.0423
     11 C           2.0677   -1.1066    0.0000 C.3     1  UNL1       -0.0461
     12 C           4.7510   -1.9051    0.0000 C.3     1  UNL1       -0.0265
     13 C           4.7606    0.3374    0.0000 C.2     1  UNL1       -0.0576
     14 C           2.7887   -2.7970    0.0000 C.3     1  UNL1        0.0126
     15 C           3.4516    1.2885    0.0000 C.ar    1  UNL1       -0.0329
     16 C           4.6542   -2.9858    0.0000 C.3     1  UNL1        0.1229
     17 C           4.7606   -0.8381    0.0000 C.3     1  UNL1       -0.0547
     18 C           4.4516    1.2885    0.0000 C.ar    1  UNL1       -0.0139
     19 C           2.3335    0.9252    0.0000 C.3     1  UNL1       -0.0547
     20 C           2.0000   -2.1326    0.0000 C.3     1  UNL1       -0.0589
     21 C           3.6664   -3.4347    0.0000 C.2     1  UNL1        0.1504
     22 C           5.7116    0.0284    0.0000 C.3     1  UNL1       -0.0424
     23 C           2.9169    2.1824    0.0000 C.ar    1  UNL1       -0.0569
     24 C           5.6499   -3.0788    0.0000 C.3     1  UNL1       -0.0425
     25 C           4.9862    2.1824    0.0000 C.ar    1  UNL1       -0.0064
     26 C           5.0715   -3.8946    0.0000 C.2     1  UNL1        0.3201
     27 C           4.4724    3.0885    0.0000 C.ar    1  UNL1       -0.0107
     28 C           3.4308    3.0885    0.0000 C.ar    1  UNL1       -0.0534
     29 C           6.0709    2.1573    0.0000 C.2     1  UNL1       -0.0030
     30 C           5.0076    4.0323    0.0000 C.2     1  UNL1        0.0025
     31 C           6.6278    3.0885    0.0000 C.2     1  UNL1        0.2209
     32 C           6.0926    4.0323    0.0000 C.2     1  UNL1        0.1671
     33 C           4.5043    4.8964    0.0000 C.3     1  UNL1       -0.0355
     34 C           6.4844   -4.8964    0.0000 C.3     1  UNL1        0.0817
     35 H           4.6284   -0.9272    0.0000 H       1  UNL1        0.0315
     36 H           2.0423    0.5319    0.0000 H       1  UNL1        0.0274
     37 H           1.5656   -0.1084    0.0000 H       1  UNL1        0.0274
     38 H           1.4726   -0.9326    0.0000 H       1  UNL1        0.0271
     39 H           1.7945   -1.6631    0.0000 H       1  UNL1        0.0271
     40 H           5.3499   -2.0653    0.0000 H       1  UNL1        0.0283
     41 H           5.0112   -1.3424    0.0000 H       1  UNL1        0.0283
     42 H           2.1936   -2.6230    0.0000 H       1  UNL1        0.0347
     43 H           2.5154   -3.3535    0.0000 H       1  UNL1        0.0347
     44 H           4.3961   -1.3397    0.0000 H       1  UNL1        0.0238
     45 H           5.2622   -1.2026    0.0000 H       1  UNL1        0.0238
     46 H           5.1250   -0.3366    0.0000 H       1  UNL1        0.0238
     47 H           2.6980    1.4268    0.0000 H       1  UNL1        0.0238
     48 H           1.8319    1.2896    0.0000 H       1  UNL1        0.0238
     49 H           1.9691    0.4236    0.0000 H       1  UNL1        0.0238
     50 H           1.7435   -1.5682    0.0000 H       1  UNL1        0.0235
     51 H           1.4356   -2.3891    0.0000 H       1  UNL1        0.0235
     52 H           2.2565   -2.6970    0.0000 H       1  UNL1        0.0235
     53 H           5.5200   -0.5612    0.0000 H       1  UNL1        0.0275
     54 H           6.3013   -0.1632    0.0000 H       1  UNL1        0.0275
     55 H           5.9032    0.6181    0.0000 H       1  UNL1        0.0275
     56 H           2.2969    2.1752    0.0000 H       1  UNL1        0.0621
     57 H           5.5922   -3.6961    0.0000 H       1  UNL1        0.0244
     58 H           6.2672   -3.1365    0.0000 H       1  UNL1        0.0244
     59 H           5.7075   -2.4615    0.0000 H       1  UNL1        0.0244
     60 H           3.1187    3.6242    0.0000 H       1  UNL1        0.0624
     61 H           6.3705    1.6145    0.0000 H       1  UNL1        0.0663
     62 H           5.0400    5.2084    0.0000 H       1  UNL1        0.0279
     63 H           4.1922    5.4321    0.0000 H       1  UNL1        0.0279
     64 H           3.9685    4.5843    0.0000 H       1  UNL1        0.0279
     65 H           5.9210   -5.1551    0.0000 H       1  UNL1        0.0661
     66 H           6.7431   -5.4598    0.0000 H       1  UNL1        0.0661
     67 H           7.0478   -4.6377    0.0000 H       1  UNL1        0.0661
     68 H           7.2159    4.8940    0.0000 H       1  UNL1        0.2923
@<TRIPOS>BOND
     1     1    21    2
     2     2    26    1
     3     2    34    1
     4     3    26    2
     5     4    32    1
     6     4    68    1
     7     5    31    2
     8     6     7    1
     9     6     8    1
    10     6    13    1
    11     6    17    1
    12     7     9    1
    13     7    12    1
    14     7    35    1
    15     8    10    1
    16     8    15    1
    17     8    19    1
    18     9    11    1
    19     9    14    1
    20     9    20    1
    21    10    11    1
    22    10    36    1
    23    10    37    1
    24    11    38    1
    25    11    39    1
    26    12    16    1
    27    12    40    1
    28    12    41    1
    29    13    18    2
    30    13    22    1
    31    14    21    1
    32    14    42    1
    33    14    43    1
    34    15    18   ar
    35    15    23   ar
    36    16    21    1
    37    16    24    1
    38    16    26    1
    39    17    44    1
    40    17    45    1
    41    17    46    1
    42    18    25   ar
    43    19    47    1
    44    19    48    1
    45    19    49    1
    46    20    50    1
    47    20    51    1
    48    20    52    1
    49    22    53    1
    50    22    54    1
    51    22    55    1
    52    23    28   ar
    53    23    56    1
    54    24    57    1
    55    24    58    1
    56    24    59    1
    57    25    27   ar
    58    25    29    2
    59    27    28   ar
    60    27    30    1
    61    28    60    1
    62    29    31    1
    63    29    61    1
    64    30    32    2
    65    30    33    1
    66    31    32    1
    67    33    62    1
    68    33    63    1
    69    33    64    1
    70    34    65    1
    71    34    66    1
    72    34    67    1
