@<TRIPOS>MOLECULE
IMPHY017399
 30 29 0 0 0
SMALL
GASTEIGER

@<TRIPOS>ATOM
      1 C           4.5981    0.2500    0.0000 C.3     1  UNL1       -0.0531
      2 C           5.4641   -0.2500    0.0000 C.3     1  UNL1       -0.0528
      3 C           3.7320   -0.2500    0.0000 C.3     1  UNL1       -0.0533
      4 C           6.3301    0.2500    0.0000 C.3     1  UNL1       -0.0496
      5 C           2.8660    0.2500    0.0000 C.3     1  UNL1       -0.0559
      6 C           7.1962   -0.2500    0.0000 C.3     1  UNL1       -0.0348
      7 C           2.0000   -0.2500    0.0000 C.3     1  UNL1       -0.0653
      8 C           8.0622    0.2500    0.0000 C.2     1  UNL1       -0.0882
      9 C           8.9282   -0.2500    0.0000 C.2     1  UNL1       -0.0910
     10 C           9.7942    0.2500    0.0000 C.3     1  UNL1       -0.0468
     11 H           4.9966    0.7249    0.0000 H       1  UNL1        0.0265
     12 H           4.1996    0.7249    0.0000 H       1  UNL1        0.0265
     13 H           5.0656   -0.7249    0.0000 H       1  UNL1        0.0265
     14 H           5.8626   -0.7249    0.0000 H       1  UNL1        0.0265
     15 H           3.3335   -0.7249    0.0000 H       1  UNL1        0.0265
     16 H           4.1306   -0.7249    0.0000 H       1  UNL1        0.0265
     17 H           6.7287    0.7249    0.0000 H       1  UNL1        0.0268
     18 H           5.9316    0.7249    0.0000 H       1  UNL1        0.0268
     19 H           3.2646    0.7249    0.0000 H       1  UNL1        0.0263
     20 H           2.4675    0.7249    0.0000 H       1  UNL1        0.0263
     21 H           6.7976   -0.7249    0.0000 H       1  UNL1        0.0307
     22 H           7.5947   -0.7249    0.0000 H       1  UNL1        0.0307
     23 H           1.6900    0.2869    0.0000 H       1  UNL1        0.0230
     24 H           1.4631   -0.5600    0.0000 H       1  UNL1        0.0230
     25 H           2.3100   -0.7869    0.0000 H       1  UNL1        0.0230
     26 H           8.0622    0.8700    0.0000 H       1  UNL1        0.0569
     27 H           8.9282   -0.8700    0.0000 H       1  UNL1        0.0566
     28 H          10.1042   -0.2869    0.0000 H       1  UNL1        0.0272
     29 H          10.3312    0.5600    0.0000 H       1  UNL1        0.0272
     30 H           9.4842    0.7869    0.0000 H       1  UNL1        0.0272
@<TRIPOS>BOND
     1     1     2    1
     2     1     3    1
     3     1    11    1
     4     1    12    1
     5     2     4    1
     6     2    13    1
     7     2    14    1
     8     3     5    1
     9     3    15    1
    10     3    16    1
    11     4     6    1
    12     4    17    1
    13     4    18    1
    14     5     7    1
    15     5    19    1
    16     5    20    1
    17     6     8    1
    18     6    21    1
    19     6    22    1
    20     7    23    1
    21     7    24    1
    22     7    25    1
    23     8     9    2
    24     8    26    1
    25     9    10    1
    26     9    27    1
    27    10    28    1
    28    10    29    1
    29    10    30    1
