@<TRIPOS>MOLECULE
IMPHY011820
 28 29 0 0 0
SMALL
GASTEIGER

@<TRIPOS>ATOM
      1 O           3.5888    2.0944    0.0000 O.3     1  UNL1       -0.3875
      2 O           2.3100    0.3343    0.0000 O.3     1  UNL1       -0.3875
      3 O           6.1057    2.0896    0.0000 O.3     1  UNL1       -0.3901
      4 O           2.6106   -1.6336    0.0000 O.3     1  UNL1       -0.3934
      5 N           4.8488   -0.1657    0.0000 N.3     1  UNL1       -0.2868
      6 C           4.8488    0.8343    0.0000 C.3     1  UNL1        0.0653
      7 C           3.8978   -0.4747    0.0000 C.3     1  UNL1        0.0624
      8 C           3.8978    1.1434    0.0000 C.3     1  UNL1        0.1004
      9 C           3.3100    0.3343    0.0000 C.3     1  UNL1        0.1002
     10 C           5.7951    1.1391    0.0000 C.3     1  UNL1        0.0744
     11 C           5.7951   -0.4704    0.0000 C.3     1  UNL1        0.0022
     12 C           6.3787    0.3343    0.0000 C.3     1  UNL1       -0.0125
     13 C           3.5888   -1.4257    0.0000 C.3     1  UNL1        0.0622
     14 H           4.8500    1.6843    0.0000 H       1  UNL1        0.0514
     15 H           4.3362   -0.9131    0.0000 H       1  UNL1        0.0512
     16 H           3.2854    1.2403    0.0000 H       1  UNL1        0.0636
     17 H           3.0285    0.8868    0.0000 H       1  UNL1        0.0636
     18 H           6.4075    1.2353    0.0000 H       1  UNL1        0.0610
     19 H           5.5440   -1.0373    0.0000 H       1  UNL1        0.0428
     20 H           6.3324   -0.7796    0.0000 H       1  UNL1        0.0428
     21 H           6.8395   -0.0804    0.0000 H       1  UNL1        0.0303
     22 H           6.8395    0.7491    0.0000 H       1  UNL1        0.0303
     23 H           3.6104   -2.0454    0.0000 H       1  UNL1        0.0573
     24 H           4.2027   -1.5120    0.0000 H       1  UNL1        0.0573
     25 H           2.9823    2.2233    0.0000 H       1  UNL1        0.2100
     26 H           2.0000    0.8713    0.0000 H       1  UNL1        0.2100
     27 H           6.7124    2.2174    0.0000 H       1  UNL1        0.2098
     28 H           2.4190   -2.2233    0.0000 H       1  UNL1        0.2095
@<TRIPOS>BOND
     1     8     1    1
     2     1    25    1
     3     9     2    1
     4     2    26    1
     5    10     3    1
     6     3    27    1
     7     4    13    1
     8     4    28    1
     9     5     6    1
    10     5     7    1
    11     5    11    1
    12     6     8    1
    13     6    10    1
    14     6    14    1
    15     7     9    1
    16     7    13    1
    17     7    15    1
    18     8     9    1
    19     8    16    1
    20     9    17    1
    21    10    12    1
    22    10    18    1
    23    11    12    1
    24    11    19    1
    25    11    20    1
    26    12    21    1
    27    12    22    1
    28    13    23    1
    29    13    24    1
