@<TRIPOS>MOLECULE
IMPHY004598
 44 44 0 0 0
SMALL
GASTEIGER

@<TRIPOS>ATOM
      1 O           4.2690    4.7500    0.0000 O.3     1  UNL1       -0.4915
      2 O           7.7331    0.7500    0.0000 O.2     1  UNL1       -0.2927
      3 O           2.5369    3.7500    0.0000 O.3     1  UNL1       -0.5033
      4 C           8.5991   -2.7500    0.0000 C.3     1  UNL1       -0.0496
      5 C           8.5991   -3.7500    0.0000 C.3     1  UNL1       -0.0530
      6 C           7.7331   -2.2500    0.0000 C.3     1  UNL1       -0.0344
      7 C           9.4651   -4.2500    0.0000 C.3     1  UNL1       -0.0559
      8 C           6.0010    1.7500    0.0000 C.3     1  UNL1       -0.0206
      9 C           6.0010    0.7500    0.0000 C.3     1  UNL1        0.0138
     10 C           5.1350    2.2500    0.0000 C.ar    1  UNL1       -0.0433
     11 C           7.7331   -1.2500    0.0000 C.2     1  UNL1       -0.0807
     12 C           9.4651   -5.2500    0.0000 C.3     1  UNL1       -0.0653
     13 C           6.8671    0.2500    0.0000 C.2     1  UNL1        0.1561
     14 C           6.8671   -0.7500    0.0000 C.2     1  UNL1       -0.0231
     15 C           5.1350    3.2500    0.0000 C.ar    1  UNL1       -0.0131
     16 C           4.2690    1.7500    0.0000 C.ar    1  UNL1       -0.0549
     17 C           4.2690    3.7500    0.0000 C.ar    1  UNL1        0.1615
     18 C           3.4030    2.2500    0.0000 C.ar    1  UNL1       -0.0163
     19 C           3.4030    3.2500    0.0000 C.ar    1  UNL1        0.1585
     20 C           5.1350    5.2500    0.0000 C.3     1  UNL1        0.0790
     21 H           9.2097   -2.8577    0.0000 H       1  UNL1        0.0268
     22 H           8.8112   -2.1674    0.0000 H       1  UNL1        0.0268
     23 H           7.9885   -3.6423    0.0000 H       1  UNL1        0.0265
     24 H           8.3871   -4.3326    0.0000 H       1  UNL1        0.0265
     25 H           7.1225   -2.1423    0.0000 H       1  UNL1        0.0307
     26 H           7.5210   -2.8326    0.0000 H       1  UNL1        0.0307
     27 H          10.0757   -4.3577    0.0000 H       1  UNL1        0.0263
     28 H           9.6772   -3.6674    0.0000 H       1  UNL1        0.0263
     29 H           6.6116    1.6423    0.0000 H       1  UNL1        0.0317
     30 H           6.2131    2.3326    0.0000 H       1  UNL1        0.0317
     31 H           5.3905    0.8577    0.0000 H       1  UNL1        0.0348
     32 H           5.7890    0.1674    0.0000 H       1  UNL1        0.0348
     33 H           8.2700   -0.9400    0.0000 H       1  UNL1        0.0573
     34 H           8.8451   -5.2500    0.0000 H       1  UNL1        0.0230
     35 H           9.4651   -5.8700    0.0000 H       1  UNL1        0.0230
     36 H          10.0851   -5.2500    0.0000 H       1  UNL1        0.0230
     37 H           6.3301   -1.0600    0.0000 H       1  UNL1        0.0649
     38 H           5.6720    3.5600    0.0000 H       1  UNL1        0.0658
     39 H           4.2690    1.1300    0.0000 H       1  UNL1        0.0621
     40 H           2.8660    1.9400    0.0000 H       1  UNL1        0.0655
     41 H           2.0000    3.4400    0.0000 H       1  UNL1        0.2923
     42 H           5.4450    4.7131    0.0000 H       1  UNL1        0.0660
     43 H           5.6720    5.5600    0.0000 H       1  UNL1        0.0660
     44 H           4.8250    5.7869    0.0000 H       1  UNL1        0.0660
@<TRIPOS>BOND
     1     1    17    1
     2     1    20    1
     3     2    13    2
     4     3    19    1
     5     3    41    1
     6     4     5    1
     7     4     6    1
     8     4    21    1
     9     4    22    1
    10     5     7    1
    11     5    23    1
    12     5    24    1
    13     6    11    1
    14     6    25    1
    15     6    26    1
    16     7    12    1
    17     7    27    1
    18     7    28    1
    19     8     9    1
    20     8    10    1
    21     8    29    1
    22     8    30    1
    23     9    13    1
    24     9    31    1
    25     9    32    1
    26    10    15   ar
    27    10    16   ar
    28    11    14    2
    29    11    33    1
    30    12    34    1
    31    12    35    1
    32    12    36    1
    33    13    14    1
    34    14    37    1
    35    15    17   ar
    36    15    38    1
    37    16    18   ar
    38    16    39    1
    39    17    19   ar
    40    18    19   ar
    41    18    40    1
    42    20    42    1
    43    20    43    1
    44    20    44    1
