@<TRIPOS>MOLECULE
IMPHY004381
 100 99 0 0 0
SMALL
GASTEIGER

@<TRIPOS>ATOM
      1 C          25.3827    0.2500    0.0000 C.3     1  UNL1       -0.0286
      2 C           5.4641   -0.2500    0.0000 C.3     1  UNL1       -0.0286
      3 C          24.5167   -0.2500    0.0000 C.2     1  UNL1       -0.0762
      4 C           6.3301    0.2500    0.0000 C.2     1  UNL1       -0.0762
      5 C          22.7846   -0.2500    0.0000 C.3     1  UNL1       -0.0308
      6 C           8.0622    0.2500    0.0000 C.3     1  UNL1       -0.0308
      7 C          21.9186    0.2500    0.0000 C.3     1  UNL1       -0.0283
      8 C           8.9282   -0.2500    0.0000 C.3     1  UNL1       -0.0283
      9 C          26.2487   -0.2500    0.0000 C.3     1  UNL1       -0.0308
     10 C           4.5981    0.2500    0.0000 C.3     1  UNL1       -0.0308
     11 C          23.6506    0.2500    0.0000 C.2     1  UNL1       -0.0847
     12 C           7.1962   -0.2500    0.0000 C.2     1  UNL1       -0.0847
     13 C          21.0526   -0.2500    0.0000 C.2     1  UNL1       -0.0723
     14 C           9.7942    0.2500    0.0000 C.2     1  UNL1       -0.0723
     15 C          24.5167   -1.2500    0.0000 C.3     1  UNL1       -0.0438
     16 C           6.3301    1.2500    0.0000 C.3     1  UNL1       -0.0438
     17 C          27.1147    0.2500    0.0000 C.2     1  UNL1       -0.0850
     18 C           3.7320   -0.2500    0.0000 C.2     1  UNL1       -0.0850
     19 C          27.9808   -0.2500    0.0000 C.2     1  UNL1       -0.0796
     20 C           2.8660    0.2500    0.0000 C.2     1  UNL1       -0.0796
     21 C          21.0526   -1.2500    0.0000 C.3     1  UNL1       -0.0435
     22 C           9.7942    1.2500    0.0000 C.3     1  UNL1       -0.0435
     23 C          20.1865    0.2500    0.0000 C.2     1  UNL1       -0.0628
     24 C          10.6603   -0.2500    0.0000 C.2     1  UNL1       -0.0628
     25 C          28.8468    0.2500    0.0000 C.3     1  UNL1       -0.0440
     26 C          27.9808   -1.2500    0.0000 C.3     1  UNL1       -0.0440
     27 C           2.0000   -0.2500    0.0000 C.3     1  UNL1       -0.0440
     28 C           2.8660    1.2500    0.0000 C.3     1  UNL1       -0.0440
     29 C          19.3205   -0.2500    0.0000 C.2     1  UNL1       -0.0616
     30 C          11.5263    0.2500    0.0000 C.2     1  UNL1       -0.0616
     31 C          18.4545    0.2500    0.0000 C.2     1  UNL1       -0.0588
     32 C          12.3923   -0.2500    0.0000 C.2     1  UNL1       -0.0588
     33 C          17.5885   -0.2500    0.0000 C.2     1  UNL1       -0.0504
     34 C          13.2583    0.2500    0.0000 C.2     1  UNL1       -0.0504
     35 C          16.7224    0.2500    0.0000 C.2     1  UNL1       -0.0588
     36 C          14.1244   -0.2500    0.0000 C.2     1  UNL1       -0.0588
     37 C          17.5885   -1.2500    0.0000 C.3     1  UNL1       -0.0397
     38 C          13.2583    1.2500    0.0000 C.3     1  UNL1       -0.0397
     39 C          15.8564   -0.2500    0.0000 C.2     1  UNL1       -0.0615
     40 C          14.9904    0.2500    0.0000 C.2     1  UNL1       -0.0615
     41 H          25.7812    0.7249    0.0000 H       1  UNL1        0.0313
     42 H          24.9842    0.7249    0.0000 H       1  UNL1        0.0313
     43 H           5.0656   -0.7249    0.0000 H       1  UNL1        0.0313
     44 H           5.8626   -0.7249    0.0000 H       1  UNL1        0.0313
     45 H          22.3861   -0.7249    0.0000 H       1  UNL1        0.0310
     46 H          23.1831   -0.7249    0.0000 H       1  UNL1        0.0310
     47 H           8.4607    0.7249    0.0000 H       1  UNL1        0.0310
     48 H           7.6636    0.7249    0.0000 H       1  UNL1        0.0310
     49 H          22.3171    0.7249    0.0000 H       1  UNL1        0.0313
     50 H          21.5201    0.7249    0.0000 H       1  UNL1        0.0313
     51 H           8.5297   -0.7249    0.0000 H       1  UNL1        0.0313
     52 H           9.3267   -0.7249    0.0000 H       1  UNL1        0.0313
     53 H          25.8502   -0.7249    0.0000 H       1  UNL1        0.0310
     54 H          26.6472   -0.7249    0.0000 H       1  UNL1        0.0310
     55 H           4.9966    0.7249    0.0000 H       1  UNL1        0.0310
     56 H           4.1996    0.7249    0.0000 H       1  UNL1        0.0310
     57 H          23.6506    0.8700    0.0000 H       1  UNL1        0.0572
     58 H           7.1962   -0.8700    0.0000 H       1  UNL1        0.0572
     59 H          23.8967   -1.2500    0.0000 H       1  UNL1        0.0274
     60 H          24.5167   -1.8700    0.0000 H       1  UNL1        0.0274
     61 H          25.1367   -1.2500    0.0000 H       1  UNL1        0.0274
     62 H           6.9501    1.2500    0.0000 H       1  UNL1        0.0274
     63 H           6.3301    1.8700    0.0000 H       1  UNL1        0.0274
     64 H           5.7101    1.2500    0.0000 H       1  UNL1        0.0274
     65 H          27.1147    0.8700    0.0000 H       1  UNL1        0.0572
     66 H           3.7320   -0.8700    0.0000 H       1  UNL1        0.0572
     67 H          20.4326   -1.2500    0.0000 H       1  UNL1        0.0274
     68 H          21.0526   -1.8700    0.0000 H       1  UNL1        0.0274
     69 H          21.6726   -1.2500    0.0000 H       1  UNL1        0.0274
     70 H          10.4142    1.2500    0.0000 H       1  UNL1        0.0274
     71 H           9.7942    1.8700    0.0000 H       1  UNL1        0.0274
     72 H           9.1742    1.2500    0.0000 H       1  UNL1        0.0274
     73 H          20.1865    0.8700    0.0000 H       1  UNL1        0.0617
     74 H          10.6603   -0.8700    0.0000 H       1  UNL1        0.0617
     75 H          29.1568   -0.2869    0.0000 H       1  UNL1        0.0274
     76 H          29.3837    0.5600    0.0000 H       1  UNL1        0.0274
     77 H          28.5368    0.7869    0.0000 H       1  UNL1        0.0274
     78 H          27.3608   -1.2500    0.0000 H       1  UNL1        0.0274
     79 H          27.9808   -1.8700    0.0000 H       1  UNL1        0.0274
     80 H          28.6008   -1.2500    0.0000 H       1  UNL1        0.0274
     81 H           1.6900    0.2869    0.0000 H       1  UNL1        0.0274
     82 H           1.4631   -0.5600    0.0000 H       1  UNL1        0.0274
     83 H           2.3100   -0.7869    0.0000 H       1  UNL1        0.0274
     84 H           3.4860    1.2500    0.0000 H       1  UNL1        0.0274
     85 H           2.8660    1.8700    0.0000 H       1  UNL1        0.0274
     86 H           2.2460    1.2500    0.0000 H       1  UNL1        0.0274
     87 H          19.3205   -0.8700    0.0000 H       1  UNL1        0.0618
     88 H          11.5263    0.8700    0.0000 H       1  UNL1        0.0618
     89 H          18.4545    0.8700    0.0000 H       1  UNL1        0.0620
     90 H          12.3923   -0.8700    0.0000 H       1  UNL1        0.0620
     91 H          16.7224    0.8700    0.0000 H       1  UNL1        0.0620
     92 H          14.1244   -0.8700    0.0000 H       1  UNL1        0.0620
     93 H          16.9685   -1.2500    0.0000 H       1  UNL1        0.0278
     94 H          17.5885   -1.8700    0.0000 H       1  UNL1        0.0278
     95 H          18.2085   -1.2500    0.0000 H       1  UNL1        0.0278
     96 H          13.8783    1.2500    0.0000 H       1  UNL1        0.0278
     97 H          13.2583    1.8700    0.0000 H       1  UNL1        0.0278
     98 H          12.6383    1.2500    0.0000 H       1  UNL1        0.0278
     99 H          15.8564   -0.8700    0.0000 H       1  UNL1        0.0618
    100 H          14.9904    0.8700    0.0000 H       1  UNL1        0.0618
@<TRIPOS>BOND
     1     1     3    1
     2     1     9    1
     3     1    41    1
     4     1    42    1
     5     2     4    1
     6     2    10    1
     7     2    43    1
     8     2    44    1
     9     3    11    2
    10     3    15    1
    11     4    12    2
    12     4    16    1
    13     5     7    1
    14     5    11    1
    15     5    45    1
    16     5    46    1
    17     6     8    1
    18     6    12    1
    19     6    47    1
    20     6    48    1
    21     7    13    1
    22     7    49    1
    23     7    50    1
    24     8    14    1
    25     8    51    1
    26     8    52    1
    27     9    17    1
    28     9    53    1
    29     9    54    1
    30    10    18    1
    31    10    55    1
    32    10    56    1
    33    11    57    1
    34    12    58    1
    35    13    21    1
    36    13    23    2
    37    14    22    1
    38    14    24    2
    39    15    59    1
    40    15    60    1
    41    15    61    1
    42    16    62    1
    43    16    63    1
    44    16    64    1
    45    17    19    2
    46    17    65    1
    47    18    20    2
    48    18    66    1
    49    19    25    1
    50    19    26    1
    51    20    27    1
    52    20    28    1
    53    21    67    1
    54    21    68    1
    55    21    69    1
    56    22    70    1
    57    22    71    1
    58    22    72    1
    59    23    29    1
    60    23    73    1
    61    24    30    1
    62    24    74    1
    63    25    75    1
    64    25    76    1
    65    25    77    1
    66    26    78    1
    67    26    79    1
    68    26    80    1
    69    27    81    1
    70    27    82    1
    71    27    83    1
    72    28    84    1
    73    28    85    1
    74    28    86    1
    75    29    31    2
    76    29    87    1
    77    30    32    2
    78    30    88    1
    79    31    33    1
    80    31    89    1
    81    32    34    1
    82    32    90    1
    83    33    35    2
    84    33    37    1
    85    34    36    2
    86    34    38    1
    87    35    39    1
    88    35    91    1
    89    36    40    1
    90    36    92    1
    91    37    93    1
    92    37    94    1
    93    37    95    1
    94    38    96    1
    95    38    97    1
    96    38    98    1
    97    39    40    2
    98    39    99    1
    99    40   100    1
