@<TRIPOS>MOLECULE
IMPHY016612
 29 30 0 0 0
SMALL
GASTEIGER

@<TRIPOS>ATOM
      1 O           5.7476   -0.4667    0.0000 O.2     1  UNL1       -0.2971
      2 O           2.0000   -0.8606    0.0000 O.2     1  UNL1       -0.2971
      3 C           4.6261    0.9182    0.0000 C.3     1  UNL1        0.0182
      4 C           3.7601   -0.5818    0.0000 C.3     1  UNL1        0.0182
      5 C           3.7601    0.4182    0.0000 C.3     1  UNL1       -0.0340
      6 C           4.7306    1.9127    0.0000 C.3     1  UNL1       -0.0431
      7 C           4.5691   -1.1696    0.0000 C.3     1  UNL1       -0.0431
      8 C           5.7088    2.1206    0.0000 C.3     1  UNL1       -0.0457
      9 C           4.2601   -2.1206    0.0000 C.3     1  UNL1       -0.0457
     10 C           5.5396    0.5115    0.0000 C.2     1  UNL1        0.1364
     11 C           2.9511   -1.1696    0.0000 C.2     1  UNL1        0.1364
     12 C           6.2088    1.2546    0.0000 C.3     1  UNL1        0.0061
     13 C           3.2601   -2.1206    0.0000 C.3     1  UNL1        0.0061
     14 H           4.6586    0.2991    0.0000 H       1  UNL1        0.0377
     15 H           4.3125   -0.3003    0.0000 H       1  UNL1        0.0377
     16 H           3.5480    1.0008    0.0000 H       1  UNL1        0.0279
     17 H           3.1495    0.3105    0.0000 H       1  UNL1        0.0279
     18 H           4.6658    2.5293    0.0000 H       1  UNL1        0.0272
     19 H           4.1106    1.9127    0.0000 H       1  UNL1        0.0272
     20 H           5.1355   -1.4218    0.0000 H       1  UNL1        0.0272
     21 H           4.8791   -0.6326    0.0000 H       1  UNL1        0.0272
     22 H           6.2752    2.3728    0.0000 H       1  UNL1        0.0269
     23 H           5.5172    2.7103    0.0000 H       1  UNL1        0.0269
     24 H           4.1953   -2.7372    0.0000 H       1  UNL1        0.0269
     25 H           4.8665   -2.2495    0.0000 H       1  UNL1        0.0269
     26 H           6.6236    0.7939    0.0000 H       1  UNL1        0.0342
     27 H           6.7104    1.6190    0.0000 H       1  UNL1        0.0342
     28 H           2.6536   -2.2495    0.0000 H       1  UNL1        0.0342
     29 H           3.3249   -2.7372    0.0000 H       1  UNL1        0.0342
@<TRIPOS>BOND
     1     1    10    2
     2     2    11    2
     3     3     5    1
     4     3     6    1
     5     3    10    1
     6     3    14    1
     7     4     5    1
     8     4     7    1
     9     4    11    1
    10     4    15    1
    11     5    16    1
    12     5    17    1
    13     6     8    1
    14     6    18    1
    15     6    19    1
    16     7     9    1
    17     7    20    1
    18     7    21    1
    19     8    12    1
    20     8    22    1
    21     8    23    1
    22     9    13    1
    23     9    24    1
    24     9    25    1
    25    10    12    1
    26    11    13    1
    27    12    26    1
    28    12    27    1
    29    13    28    1
    30    13    29    1
