@<TRIPOS>MOLECULE
IMPHY000649
 45 49 0 0 0
SMALL
GASTEIGER

@<TRIPOS>ATOM
      1 O           2.2314    0.0528    0.0000 O.3     1  UNL1       -0.4760
      2 O           6.2030    0.9755    0.0000 O.3     1  UNL1       -0.3853
      3 O           2.0000   -2.4021    0.0000 O.2     1  UNL1       -0.4956
      4 O           2.0000    2.4021    0.0000 O.3     1  UNL1       -0.4914
      5 N           6.1607   -0.9511    0.0000 N.3     1  UNL1       -0.2961
      6 C           3.6897   -0.4755    0.0000 C.3     1  UNL1        0.0675
      7 C           5.3370   -0.4755    0.0000 C.3     1  UNL1        0.0629
      8 C           4.5133   -0.9511    0.0000 C.2     1  UNL1       -0.0351
      9 C           2.8660   -0.9511    0.0000 C.3     1  UNL1        0.1701
     10 C           4.2392    0.2219    0.0000 C.3     1  UNL1       -0.0227
     11 C           3.6897    0.4755    0.0000 C.ar    1  UNL1        0.0179
     12 C           5.3370    0.4755    0.0000 C.3     1  UNL1        0.0999
     13 C           5.5918    0.2219    0.0000 C.3     1  UNL1        0.0005
     14 C           4.5133    0.9511    0.0000 C.ar    1  UNL1       -0.0095
     15 C           2.8660    0.9511    0.0000 C.ar    1  UNL1        0.1674
     16 C           2.8660   -1.9022    0.0000 C.2     1  UNL1        0.1388
     17 C           4.5133   -1.9022    0.0000 C.2     1  UNL1       -0.0567
     18 C           3.6897   -2.3777    0.0000 C.2     1  UNL1       -0.0204
     19 C           4.5133    1.9022    0.0000 C.ar    1  UNL1       -0.0521
     20 C           6.8418   -1.6832    0.0000 C.3     1  UNL1       -0.0121
     21 C           2.8660    1.9022    0.0000 C.ar    1  UNL1        0.1619
     22 C           3.6897    2.3777    0.0000 C.ar    1  UNL1       -0.0159
     23 C           2.0000   -3.4022    0.0000 C.3     1  UNL1        0.0785
     24 C           2.0000    3.4022    0.0000 C.3     1  UNL1        0.0790
     25 H           5.3377   -1.3255    0.0000 H       1  UNL1        0.0538
     26 H           2.0496   -1.1875    0.0000 H       1  UNL1        0.0828
     27 H           4.3760    0.8266    0.0000 H       1  UNL1        0.0290
     28 H           3.6796    0.4887    0.0000 H       1  UNL1        0.0290
     29 H           5.8739    0.1655    0.0000 H       1  UNL1        0.0663
     30 H           6.1840    0.4057    0.0000 H       1  UNL1        0.0427
     31 H           5.4989    0.8349    0.0000 H       1  UNL1        0.0427
     32 H           5.0503   -2.2122    0.0000 H       1  UNL1        0.0619
     33 H           3.6897   -2.9977    0.0000 H       1  UNL1        0.0652
     34 H           5.0503    2.2122    0.0000 H       1  UNL1        0.0622
     35 H           6.3879   -2.1055    0.0000 H       1  UNL1        0.0391
     36 H           7.2641   -2.1371    0.0000 H       1  UNL1        0.0391
     37 H           7.2957   -1.2609    0.0000 H       1  UNL1        0.0391
     38 H           6.2030    1.5955    0.0000 H       1  UNL1        0.2103
     39 H           3.6897    2.9977    0.0000 H       1  UNL1        0.0655
     40 H           1.3800   -3.4022    0.0000 H       1  UNL1        0.0660
     41 H           2.0000   -4.0222    0.0000 H       1  UNL1        0.0660
     42 H           2.6200   -3.4022    0.0000 H       1  UNL1        0.0660
     43 H           2.6200    3.4022    0.0000 H       1  UNL1        0.0660
     44 H           2.0000    4.0222    0.0000 H       1  UNL1        0.0660
     45 H           1.3800    3.4022    0.0000 H       1  UNL1        0.0660
@<TRIPOS>BOND
     1     1     9    1
     2     1    15    1
     3    12     2    1
     4     2    38    1
     5     3    16    1
     6     3    23    1
     7     4    21    1
     8     4    24    1
     9     5     7    1
    10     5    13    1
    11     5    20    1
    12     6     8    1
    13     6     9    1
    14     6    10    1
    15     6    11    1
    16     7     8    1
    17     7    12    1
    18     7    25    1
    19     8    17    2
    20     9    16    1
    21     9    26    1
    22    10    13    1
    23    10    27    1
    24    10    28    1
    25    11    14   ar
    26    11    15   ar
    27    12    14    1
    28    12    29    1
    29    13    30    1
    30    13    31    1
    31    14    19   ar
    32    15    21   ar
    33    16    18    2
    34    17    18    1
    35    17    32    1
    36    18    33    1
    37    19    22   ar
    38    19    34    1
    39    20    35    1
    40    20    36    1
    41    20    37    1
    42    21    22   ar
    43    22    39    1
    44    23    40    1
    45    23    41    1
    46    23    42    1
    47    24    43    1
    48    24    44    1
    49    24    45    1
