@<TRIPOS>MOLECULE
IMPHY005699
 84 88 0 0 0
SMALL
GASTEIGER

@<TRIPOS>ATOM
      1 O           2.5357   -2.5925    0.0000 O.3     1  UNL1       -0.3912
      2 O          11.5367    0.5125    0.0000 O.3     1  UNL1       -0.3886
      3 O          11.5367    2.6042    0.0000 O.3     1  UNL1       -0.3881
      4 O           4.3500   -4.3704    0.0000 O.3     1  UNL1       -0.3944
      5 O           9.7088    4.3680    0.0000 O.3     1  UNL1       -0.4802
      6 O          11.2187    3.5194    0.0000 O.2     1  UNL1       -0.2503
      7 C           7.0628   -1.0402    0.0000 C.3     1  UNL1       -0.0194
      8 C           6.1968   -0.5402    0.0000 C.3     1  UNL1       -0.0257
      9 C           5.2868   -1.0470    0.0000 C.3     1  UNL1       -0.0249
     10 C           7.9288   -0.5402    0.0000 C.3     1  UNL1       -0.0051
     11 C           5.2787   -2.0886    0.0000 C.3     1  UNL1       -0.0255
     12 C           7.0789   -2.0817    0.0000 C.3     1  UNL1       -0.0463
     13 C           7.9288    0.4598    0.0000 C.2     1  UNL1       -0.0633
     14 C           6.1808   -2.6094    0.0000 C.3     1  UNL1       -0.0485
     15 C           8.8228    0.9945    0.0000 C.3     1  UNL1       -0.0105
     16 C           4.3433   -2.6384    0.0000 C.3     1  UNL1        0.0203
     17 C           9.7288    0.4806    0.0000 C.3     1  UNL1        0.0029
     18 C           8.8228   -1.0748    0.0000 C.3     1  UNL1       -0.0428
     19 C           6.1968    0.4598    0.0000 C.3     1  UNL1       -0.0306
     20 C           4.3599   -0.4829    0.0000 C.3     1  UNL1       -0.0447
     21 C           9.7288   -0.5610    0.0000 C.3     1  UNL1       -0.0438
     22 C           7.7056   -1.8062    0.0000 C.3     1  UNL1       -0.0585
     23 C           7.0628    0.9598    0.0000 C.2     1  UNL1       -0.0836
     24 C           3.4037   -2.0959    0.0000 C.3     1  UNL1        0.0630
     25 C           5.2945   -0.0471    0.0000 C.3     1  UNL1       -0.0590
     26 C           8.2709   -1.4798    0.0000 C.3     1  UNL1       -0.0553
     27 C           3.4120   -1.0109    0.0000 C.3     1  UNL1       -0.0257
     28 C           8.7977    2.0792    0.0000 C.3     1  UNL1       -0.0279
     29 C          10.6726    1.0159    0.0000 C.3     1  UNL1        0.0880
     30 C           9.7288    2.6361    0.0000 C.3     1  UNL1        0.0935
     31 C          10.6726    2.1009    0.0000 C.3     1  UNL1        0.0970
     32 C           3.8467   -3.5063    0.0000 C.3     1  UNL1        0.0522
     33 C           4.8466   -3.5024    0.0000 C.3     1  UNL1       -0.0548
     34 C          10.5987   -0.0127    0.0000 C.3     1  UNL1       -0.0566
     35 C           9.2188    3.4963    0.0000 C.3     1  UNL1       -0.0469
     36 C          10.2188    3.5078    0.0000 C.2     1  UNL1        0.3133
     37 H           6.9329   -0.1152    0.0000 H       1  UNL1        0.0315
     38 H           5.2820   -2.9386    0.0000 H       1  UNL1        0.0313
     39 H           7.2969   -2.6621    0.0000 H       1  UNL1        0.0271
     40 H           7.6880   -1.9662    0.0000 H       1  UNL1        0.0271
     41 H           5.7835   -3.0854    0.0000 H       1  UNL1        0.0268
     42 H           6.5818   -3.0823    0.0000 H       1  UNL1        0.0268
     43 H           9.5522    1.4308    0.0000 H       1  UNL1        0.0352
     44 H           8.4182   -1.5446    0.0000 H       1  UNL1        0.0274
     45 H           9.2164   -1.5539    0.0000 H       1  UNL1        0.0274
     46 H           5.9847    1.0424    0.0000 H       1  UNL1        0.0310
     47 H           5.5862    0.3522    0.0000 H       1  UNL1        0.0310
     48 H           4.7681   -0.0163    0.0000 H       1  UNL1        0.0271
     49 H           3.9700   -0.0009    0.0000 H       1  UNL1        0.0271
     50 H           9.9379   -1.1447    0.0000 H       1  UNL1        0.0272
     51 H          10.3397   -0.4549    0.0000 H       1  UNL1        0.0272
     52 H           7.2306   -2.2048    0.0000 H       1  UNL1        0.0235
     53 H           8.1041   -2.2812    0.0000 H       1  UNL1        0.0235
     54 H           8.1805   -1.4077    0.0000 H       1  UNL1        0.0235
     55 H           7.0628    1.5798    0.0000 H       1  UNL1        0.0572
     56 H           3.4025   -2.7159    0.0000 H       1  UNL1        0.0599
     57 H           5.9145   -0.0518    0.0000 H       1  UNL1        0.0235
     58 H           5.2993    0.5729    0.0000 H       1  UNL1        0.0235
     59 H           4.6745   -0.0423    0.0000 H       1  UNL1        0.0235
     60 H           7.6884   -1.6920    0.0000 H       1  UNL1        0.0238
     61 H           8.4830   -2.0624    0.0000 H       1  UNL1        0.0238
     62 H           8.8535   -1.2677    0.0000 H       1  UNL1        0.0238
     63 H           3.2075   -0.4256    0.0000 H       1  UNL1        0.0290
     64 H           2.8004   -1.1123    0.0000 H       1  UNL1        0.0290
     65 H           8.5752    2.6579    0.0000 H       1  UNL1        0.0282
     66 H           8.1894    1.9590    0.0000 H       1  UNL1        0.0282
     67 H          11.2101    1.3248    0.0000 H       1  UNL1        0.0625
     68 H          10.6690    2.7208    0.0000 H       1  UNL1        0.0630
     69 H           3.3702   -3.1096    0.0000 H       1  UNL1        0.0563
     70 H           3.3732   -3.9067    0.0000 H       1  UNL1        0.0563
     71 H           4.3109   -3.8145    0.0000 H       1  UNL1        0.0237
     72 H           5.1587   -4.0382    0.0000 H       1  UNL1        0.0237
     73 H           5.3824   -3.1904    0.0000 H       1  UNL1        0.0237
     74 H          10.2928   -0.5520    0.0000 H       1  UNL1        0.0236
     75 H          11.1380   -0.3185    0.0000 H       1  UNL1        0.0236
     76 H          10.9045    0.5266    0.0000 H       1  UNL1        0.0236
     77 H           9.7522    3.8125    0.0000 H       1  UNL1        0.0241
     78 H           8.9027    4.0296    0.0000 H       1  UNL1        0.0241
     79 H           8.6855    3.1801    0.0000 H       1  UNL1        0.0241
     80 H           2.0000   -2.2804    0.0000 H       1  UNL1        0.2098
     81 H          12.0748    0.8205    0.0000 H       1  UNL1        0.2099
     82 H          12.0748    2.2963    0.0000 H       1  UNL1        0.2099
     83 H           4.0421   -4.9085    0.0000 H       1  UNL1        0.2094
     84 H          10.0126    4.9085    0.0000 H       1  UNL1        0.2951
@<TRIPOS>BOND
     1    24     1    1
     2     1    80    1
     3    29     2    1
     4     2    81    1
     5    31     3    1
     6     3    82    1
     7     4    32    1
     8     4    83    1
     9     5    36    1
    10     5    84    1
    11     6    36    2
    12     7     8    1
    13     7    10    1
    14     7    12    1
    15     7    22    1
    16     8     9    1
    17     8    19    1
    18     8    37    1
    19     9    11    1
    20     9    20    1
    21     9    25    1
    22    10    13    1
    23    10    18    1
    24    10    26    1
    25    11    14    1
    26    11    16    1
    27    11    38    1
    28    12    14    1
    29    12    39    1
    30    12    40    1
    31    13    15    1
    32    13    23    2
    33    14    41    1
    34    14    42    1
    35    15    17    1
    36    15    28    1
    37    15    43    1
    38    16    24    1
    39    16    32    1
    40    16    33    1
    41    17    21    1
    42    17    29    1
    43    17    34    1
    44    18    21    1
    45    18    44    1
    46    18    45    1
    47    19    23    1
    48    19    46    1
    49    19    47    1
    50    20    27    1
    51    20    48    1
    52    20    49    1
    53    21    50    1
    54    21    51    1
    55    22    52    1
    56    22    53    1
    57    22    54    1
    58    23    55    1
    59    24    27    1
    60    24    56    1
    61    25    57    1
    62    25    58    1
    63    25    59    1
    64    26    60    1
    65    26    61    1
    66    26    62    1
    67    27    63    1
    68    27    64    1
    69    28    30    1
    70    28    65    1
    71    28    66    1
    72    29    31    1
    73    29    67    1
    74    30    31    1
    75    30    35    1
    76    30    36    1
    77    31    68    1
    78    32    69    1
    79    32    70    1
    80    33    71    1
    81    33    72    1
    82    33    73    1
    83    34    74    1
    84    34    75    1
    85    34    76    1
    86    35    77    1
    87    35    78    1
    88    35    79    1
