@<TRIPOS>MOLECULE
IMPHY000810
 104 108 0 0 0
SMALL
GASTEIGER

@<TRIPOS>ATOM
      1 O           4.9872    2.0225    0.0000 O.3     1  UNL1       -0.3557
      2 O           5.5634    0.1280    0.0000 O.3     1  UNL1       -0.4580
      3 O           6.8801   -0.5478    0.0000 O.3     1  UNL1       -0.4569
      4 O           7.5010    2.2985    0.0000 O.3     1  UNL1       -0.3820
      5 O           5.1083   -0.8457    0.0000 O.3     1  UNL1       -0.4573
      6 O           6.7988    2.5810    0.0000 O.3     1  UNL1       -0.4567
      7 O           8.1291   -0.9107    0.0000 O.3     1  UNL1       -0.4542
      8 O           9.2001    1.6179    0.0000 O.3     1  UNL1       -0.4539
      9 O           8.3973    0.7400    0.0000 O.3     1  UNL1       -0.4639
     10 O           2.6981   -0.5371    0.0000 O.3     1  UNL1       -0.4582
     11 O           4.5487    1.5317    0.0000 O.2     1  UNL1       -0.2512
     12 O           6.2577   -2.4485    0.0000 O.2     1  UNL1       -0.2512
     13 O           4.0834   -2.2419    0.0000 O.2     1  UNL1       -0.2512
     14 O           8.1791    3.6273    0.0000 O.2     1  UNL1       -0.2512
     15 O           8.6009   -2.5956    0.0000 O.2     1  UNL1       -0.2505
     16 O          10.5400    0.5203    0.0000 O.2     1  UNL1       -0.2512
     17 O           8.9639   -0.8968    0.0000 O.2     1  UNL1       -0.2512
     18 O           2.0000   -2.1415    0.0000 O.2     1  UNL1       -0.2449
     19 N           5.3785   -2.7335    0.0000 N.ar    1  UNL1       -0.2588
     20 C           6.2121    1.9382    0.0000 C.3     1  UNL1        0.1549
     21 C           6.6965    1.0677    0.0000 C.3     1  UNL1        0.1207
     22 C           4.6514    0.9679    0.0000 C.3     1  UNL1        0.0715
     23 C           5.6354    1.1254    0.0000 C.3     1  UNL1        0.1446
     24 C           7.2755    1.3242    0.0000 C.3     1  UNL1        0.1367
     25 C           6.2127    0.1969    0.0000 C.3     1  UNL1        0.1553
     26 C           3.8498    1.5600    0.0000 C.3     1  UNL1        0.1114
     27 C           5.2177    0.1483    0.0000 C.3     1  UNL1        0.1496
     28 C           7.4029    1.7841    0.0000 C.3     1  UNL1        0.1584
     29 C           7.9610    0.3055    0.0000 C.3     1  UNL1        0.1742
     30 C           8.2646    1.2647    0.0000 C.3     1  UNL1        0.1799
     31 C           7.4523    0.4129    0.0000 C.3     1  UNL1        0.1080
     32 C           8.1667    1.7778    0.0000 C.3     1  UNL1       -0.0295
     33 C           3.0312    0.6447    0.0000 C.3     1  UNL1        0.1219
     34 C           3.2739    2.3775    0.0000 C.3     1  UNL1       -0.0321
     35 C           4.6508    0.5370    0.0000 C.2     1  UNL1        0.3043
     36 C           6.5689   -1.4981    0.0000 C.2     1  UNL1        0.3043
     37 C           4.1927   -1.2479    0.0000 C.2     1  UNL1        0.3043
     38 C           7.1869    3.5026    0.0000 C.2     1  UNL1        0.3043
     39 C           7.7458   -2.0772    0.0000 C.2     1  UNL1        0.3110
     40 C          10.1869    1.4559    0.0000 C.2     1  UNL1        0.3044
     41 C           9.1530    0.0851    0.0000 C.2     1  UNL1        0.3040
     42 C           6.8889   -2.9566    0.0000 C.3     1  UNL1        0.0616
     43 C           3.8404   -0.0489    0.0000 C.3     1  UNL1        0.0332
     44 C           2.9181   -1.7451    0.0000 C.2     1  UNL1        0.3410
     45 C           7.1761   -2.4748    0.0000 C.3     1  UNL1        0.0332
     46 C           3.3866   -0.6561    0.0000 C.3     1  UNL1        0.0332
     47 C           6.5828    4.2996    0.0000 C.3     1  UNL1        0.0332
     48 C           5.7327   -3.3701    0.0000 C.3     1  UNL1        0.0119
     49 C          10.8206    2.2295    0.0000 C.3     1  UNL1        0.0332
     50 C          10.1350   -0.1041    0.0000 C.3     1  UNL1        0.0332
     51 C           3.6465   -2.7335    0.0000 C.ar    1  UNL1        0.0805
     52 C           7.6286   -3.6295    0.0000 C.3     1  UNL1       -0.0517
     53 C           4.5125   -3.2335    0.0000 C.ar    1  UNL1        0.0588
     54 C           6.1016   -4.2996    0.0000 C.3     1  UNL1       -0.0562
     55 C           3.6465   -1.7335    0.0000 C.ar    1  UNL1       -0.0446
     56 C           4.5125   -1.2335    0.0000 C.ar    1  UNL1       -0.0428
     57 C           5.3785   -1.7335    0.0000 C.ar    1  UNL1        0.0279
     58 H           3.8270    0.7608    0.0000 H       1  UNL1        0.0404
     59 H           6.1604    0.7957    0.0000 H       1  UNL1        0.0769
     60 H           5.9737   -0.3752    0.0000 H       1  UNL1        0.0781
     61 H           4.6166   -0.0036    0.0000 H       1  UNL1        0.0777
     62 H           7.8174    2.2452    0.0000 H       1  UNL1        0.0782
     63 H           8.6585   -0.1801    0.0000 H       1  UNL1        0.0803
     64 H           8.7147    0.8384    0.0000 H       1  UNL1        0.0811
     65 H           6.9711    0.0219    0.0000 H       1  UNL1        0.0706
     66 H           7.7538   -0.1289    0.0000 H       1  UNL1        0.0706
     67 H           8.4479    1.2252    0.0000 H       1  UNL1        0.0259
     68 H           8.7193    2.0589    0.0000 H       1  UNL1        0.0259
     69 H           7.8856    2.3303    0.0000 H       1  UNL1        0.0259
     70 H           2.7509    1.1977    0.0000 H       1  UNL1        0.0727
     71 H           3.5747    0.3463    0.0000 H       1  UNL1        0.0727
     72 H           3.7808    2.7345    0.0000 H       1  UNL1        0.0259
     73 H           2.9168    2.8844    0.0000 H       1  UNL1        0.0259
     74 H           2.7670    2.0204    0.0000 H       1  UNL1        0.0259
     75 H           8.0940    2.4794    0.0000 H       1  UNL1        0.2104
     76 H           6.8641   -3.5761    0.0000 H       1  UNL1        0.0417
     77 H           3.4772    0.4536    0.0000 H       1  UNL1        0.0342
     78 H           3.3379   -0.4121    0.0000 H       1  UNL1        0.0342
     79 H           4.2036   -0.5513    0.0000 H       1  UNL1        0.0342
     80 H           6.6496   -2.8021    0.0000 H       1  UNL1        0.0342
     81 H           7.5034   -3.0013    0.0000 H       1  UNL1        0.0342
     82 H           7.7026   -2.1474    0.0000 H       1  UNL1        0.0342
     83 H           3.7535   -0.1563    0.0000 H       1  UNL1        0.0342
     84 H           2.8868   -0.2892    0.0000 H       1  UNL1        0.0342
     85 H           3.0197   -1.1559    0.0000 H       1  UNL1        0.0342
     86 H           7.0769    4.6741    0.0000 H       1  UNL1        0.0342
     87 H           6.2083    4.7937    0.0000 H       1  UNL1        0.0342
     88 H           6.0887    3.9250    0.0000 H       1  UNL1        0.0342
     89 H           5.3481   -3.8564    0.0000 H       1  UNL1        0.0369
     90 H          11.3002    1.8366    0.0000 H       1  UNL1        0.0342
     91 H          11.2135    2.7091    0.0000 H       1  UNL1        0.0342
     92 H          10.3410    2.6224    0.0000 H       1  UNL1        0.0342
     93 H          10.0177   -0.7129    0.0000 H       1  UNL1        0.0342
     94 H          10.7438   -0.2214    0.0000 H       1  UNL1        0.0342
     95 H          10.2523    0.5047    0.0000 H       1  UNL1        0.0342
     96 H           7.2114   -4.0881    0.0000 H       1  UNL1        0.0238
     97 H           8.0873   -4.0467    0.0000 H       1  UNL1        0.0238
     98 H           8.0458   -3.1708    0.0000 H       1  UNL1        0.0238
     99 H           5.5253   -4.5283    0.0000 H       1  UNL1        0.0236
    100 H           6.3303   -4.8758    0.0000 H       1  UNL1        0.0236
    101 H           6.6779   -4.0709    0.0000 H       1  UNL1        0.0236
    102 H           3.1095   -1.4235    0.0000 H       1  UNL1        0.0627
    103 H           4.5125   -0.6135    0.0000 H       1  UNL1        0.0633
    104 H           5.9154   -1.4235    0.0000 H       1  UNL1        0.0829
@<TRIPOS>BOND
     1     1    20    1
     2     1    26    1
     3    23     2    1
     4     2    35    1
     5    25     3    1
     6     3    36    1
     7     4    24    1
     8     4    75    1
     9    27     5    1
    10     5    37    1
    11    28     6    1
    12     6    38    1
    13     7    29    1
    14     7    39    1
    15    30     8    1
    16     8    40    1
    17     9    31    1
    18     9    41    1
    19    10    33    1
    20    10    44    1
    21    11    35    2
    22    12    36    2
    23    13    37    2
    24    14    38    2
    25    15    39    2
    26    16    40    2
    27    17    41    2
    28    18    44    2
    29    19    53   ar
    30    19    57   ar
    31    20    21    1
    32    20    23    1
    33    20    24    1
    34    21    25    1
    35    21    28    1
    36    21    31    1
    37    22    23    1
    38    22    26    1
    39    22    27    1
    40    22    58    1
    41    23    59    1
    42    24    29    1
    43    24    32    1
    44    25    27    1
    45    25    60    1
    46    26    33    1
    47    26    34    1
    48    27    61    1
    49    28    30    1
    50    28    62    1
    51    29    30    1
    52    29    63    1
    53    30    64    1
    54    31    65    1
    55    31    66    1
    56    32    67    1
    57    32    68    1
    58    32    69    1
    59    33    70    1
    60    33    71    1
    61    34    72    1
    62    34    73    1
    63    34    74    1
    64    35    43    1
    65    36    45    1
    66    37    46    1
    67    38    47    1
    68    39    42    1
    69    40    49    1
    70    41    50    1
    71    42    48    1
    72    42    52    1
    73    42    76    1
    74    43    77    1
    75    43    78    1
    76    43    79    1
    77    44    51    1
    78    45    80    1
    79    45    81    1
    80    45    82    1
    81    46    83    1
    82    46    84    1
    83    46    85    1
    84    47    86    1
    85    47    87    1
    86    47    88    1
    87    48    53    1
    88    48    54    1
    89    48    89    1
    90    49    90    1
    91    49    91    1
    92    49    92    1
    93    50    93    1
    94    50    94    1
    95    50    95    1
    96    51    53   ar
    97    51    55   ar
    98    52    96    1
    99    52    97    1
   100    52    98    1
   101    54    99    1
   102    54   100    1
   103    54   101    1
   104    55    56   ar
   105    55   102    1
   106    56    57   ar
   107    56   103    1
   108    57   104    1
