@<TRIPOS>MOLECULE
IMPHY004285
 54 55 0 0 0
SMALL
GASTEIGER

@<TRIPOS>ATOM
      1 O           7.1962    4.4050    0.0000 O.3     1  UNL1       -0.4913
      2 O          10.6603    4.4050    0.0000 O.3     1  UNL1       -0.4913
      3 O           2.8660   -3.0950    0.0000 O.3     1  UNL1       -0.4915
      4 O           8.9282    5.4050    0.0000 O.3     1  UNL1       -0.5009
      5 O           8.0622   -2.0950    0.0000 O.2     1  UNL1       -0.2927
      6 O           2.8660   -5.0950    0.0000 O.3     1  UNL1       -0.5033
      7 C           8.9282    1.4050    0.0000 C.3     1  UNL1       -0.0240
      8 C           8.0622    0.9050    0.0000 C.3     1  UNL1       -0.0304
      9 C           8.9282    2.4050    0.0000 C.ar    1  UNL1       -0.0399
     10 C           6.3301   -3.0950    0.0000 C.3     1  UNL1       -0.0206
     11 C           6.3301   -2.0950    0.0000 C.3     1  UNL1        0.0138
     12 C           5.4641   -3.5950    0.0000 C.ar    1  UNL1       -0.0433
     13 C           8.0622   -0.0950    0.0000 C.2     1  UNL1       -0.0804
     14 C           9.7942    2.9050    0.0000 C.ar    1  UNL1       -0.0129
     15 C           8.0622    2.9050    0.0000 C.ar    1  UNL1       -0.0129
     16 C           7.1962   -1.5950    0.0000 C.2     1  UNL1        0.1561
     17 C           7.1962   -0.5950    0.0000 C.2     1  UNL1       -0.0231
     18 C           8.0622    3.9050    0.0000 C.ar    1  UNL1        0.1652
     19 C           9.7942    3.9050    0.0000 C.ar    1  UNL1        0.1652
     20 C           4.5981   -3.0950    0.0000 C.ar    1  UNL1       -0.0131
     21 C           8.9282    4.4050    0.0000 C.ar    1  UNL1        0.2010
     22 C           5.4641   -4.5950    0.0000 C.ar    1  UNL1       -0.0549
     23 C           3.7320   -3.5950    0.0000 C.ar    1  UNL1        0.1615
     24 C           4.5981   -5.0950    0.0000 C.ar    1  UNL1       -0.0163
     25 C           3.7320   -4.5950    0.0000 C.ar    1  UNL1        0.1585
     26 C           6.3301    3.9050    0.0000 C.3     1  UNL1        0.0790
     27 C          11.5263    3.9050    0.0000 C.3     1  UNL1        0.0790
     28 C           2.0000   -3.5950    0.0000 C.3     1  UNL1        0.0790
     29 H           9.1403    0.8224    0.0000 H       1  UNL1        0.0316
     30 H           9.5388    1.5127    0.0000 H       1  UNL1        0.0316
     31 H           7.8501    1.4876    0.0000 H       1  UNL1        0.0311
     32 H           7.4516    0.7973    0.0000 H       1  UNL1        0.0311
     33 H           6.5422   -3.6776    0.0000 H       1  UNL1        0.0317
     34 H           6.9407   -2.9873    0.0000 H       1  UNL1        0.0317
     35 H           6.1181   -1.5124    0.0000 H       1  UNL1        0.0348
     36 H           5.7196   -2.2027    0.0000 H       1  UNL1        0.0348
     37 H           8.5991   -0.4050    0.0000 H       1  UNL1        0.0573
     38 H          10.3312    2.5950    0.0000 H       1  UNL1        0.0658
     39 H           7.5252    2.5950    0.0000 H       1  UNL1        0.0658
     40 H           6.6592   -0.2850    0.0000 H       1  UNL1        0.0649
     41 H           4.5981   -2.4750    0.0000 H       1  UNL1        0.0658
     42 H           6.0010   -4.9050    0.0000 H       1  UNL1        0.0621
     43 H           4.5981   -5.7150    0.0000 H       1  UNL1        0.0655
     44 H           9.4651    5.7150    0.0000 H       1  UNL1        0.2924
     45 H           6.0201    4.4419    0.0000 H       1  UNL1        0.0660
     46 H           5.7932    3.5950    0.0000 H       1  UNL1        0.0660
     47 H           6.6401    3.3681    0.0000 H       1  UNL1        0.0660
     48 H          11.2163    3.3681    0.0000 H       1  UNL1        0.0660
     49 H          12.0632    3.5950    0.0000 H       1  UNL1        0.0660
     50 H          11.8363    4.4419    0.0000 H       1  UNL1        0.0660
     51 H           2.8660   -5.7150    0.0000 H       1  UNL1        0.2923
     52 H           1.6900   -3.0581    0.0000 H       1  UNL1        0.0660
     53 H           1.4631   -3.9050    0.0000 H       1  UNL1        0.0660
     54 H           2.3100   -4.1319    0.0000 H       1  UNL1        0.0660
@<TRIPOS>BOND
     1     1    18    1
     2     1    26    1
     3     2    19    1
     4     2    27    1
     5     3    23    1
     6     3    28    1
     7     4    21    1
     8     4    44    1
     9     5    16    2
    10     6    25    1
    11     6    51    1
    12     7     8    1
    13     7     9    1
    14     7    29    1
    15     7    30    1
    16     8    13    1
    17     8    31    1
    18     8    32    1
    19     9    14   ar
    20     9    15   ar
    21    10    11    1
    22    10    12    1
    23    10    33    1
    24    10    34    1
    25    11    16    1
    26    11    35    1
    27    11    36    1
    28    12    20   ar
    29    12    22   ar
    30    13    17    2
    31    13    37    1
    32    14    19   ar
    33    14    38    1
    34    15    18   ar
    35    15    39    1
    36    16    17    1
    37    17    40    1
    38    18    21   ar
    39    19    21   ar
    40    20    23   ar
    41    20    41    1
    42    22    24   ar
    43    22    42    1
    44    23    25   ar
    45    24    25   ar
    46    24    43    1
    47    26    45    1
    48    26    46    1
    49    26    47    1
    50    27    48    1
    51    27    49    1
    52    27    50    1
    53    28    52    1
    54    28    53    1
    55    28    54    1
