@<TRIPOS>MOLECULE
IMPHY002356
 15 16 0 0 0
SMALL
GASTEIGER

@<TRIPOS>ATOM
      1 C          -3.4641    1.0000    0.0000 C.ar    1  UNL1        0.0009
      2 C          -2.5981    2.5000    0.0000 C.ar    1  UNL1        0.0009
      3 C          -0.8660    1.5000    0.0000 C.ar    1  UNL1        0.0033
      4 C          -4.3301    1.5000    0.0000 C.ar    1  UNL1        0.0114
      5 C          -3.4641    3.0000    0.0000 C.ar    1  UNL1        0.0114
      6 C           0.0000    1.0000    0.0000 C.ar    1  UNL1        0.0429
      7 C          -1.7321    0.0000    0.0000 C.ar    1  UNL1        0.0146
      8 C          -2.5981    1.5000    0.0000 C.ar    1  UNL1        0.0001
      9 C          -1.7321    1.0000    0.0000 C.ar    1  UNL1        0.0010
     10 C          -4.3301    2.5000    0.0000 C.ar    1  UNL1        0.0577
     11 C          -0.8660   -0.5000    0.0000 C.ar    1  UNL1        0.0965
     12 C           0.0000    0.0000    0.0000 C.ar    1  UNL1        0.2061
     13 CL         -5.1962    3.0000    0.0000 Cl      1  UNL1       -0.0822
     14 CL         -0.8660   -1.5000    0.0000 Cl      1  UNL1       -0.0789
     15 O           0.8660   -0.5000    0.0000 O.3     1  UNL1       -0.2857
@<TRIPOS>BOND
     1     1     4   ar
     2     1     8   ar
     3     2     5   ar
     4     2     8   ar
     5     3     6   ar
     6     3     9   ar
     7     4    10   ar
     8     5    10   ar
     9     6    12   ar
    10     7     9   ar
    11     7    11   ar
    12     8     9    1
    13    10    13    1
    14    11    12   ar
    15    11    14    1
    16    12    15    1
