@<TRIPOS>MOLECULE
IMPHY001477
 42 46 0 0 0
SMALL
GASTEIGER

@<TRIPOS>ATOM
      1 O           4.7340   -1.5104    0.0000 O.3     1  UNL1       -0.4830
      2 O           5.6521    1.0380    0.0000 O.3     1  UNL1       -0.4879
      3 O           2.1360   -0.0104    0.0000 O.2     1  UNL1       -0.2912
      4 O           3.2118   -4.5902    0.0000 O.2     1  UNL1       -0.4628
      5 O           2.0116    3.1265    0.0000 O.3     1  UNL1       -0.4914
      6 O           3.8149    4.1863    0.0000 O.3     1  UNL1       -0.4913
      7 C           3.8680   -0.0104    0.0000 C.3     1  UNL1        0.0908
      8 C           4.7340   -0.5104    0.0000 C.3     1  UNL1        0.1479
      9 C           3.8520    1.0311    0.0000 C.ar    1  UNL1        0.0122
     10 C           5.6440   -0.0036    0.0000 C.3     1  UNL1        0.1273
     11 C           3.0020   -0.5104    0.0000 C.2     1  UNL1        0.1778
     12 C           3.0020   -1.5104    0.0000 C.ar    1  UNL1        0.0606
     13 C           4.7500    1.5588    0.0000 C.ar    1  UNL1        0.1283
     14 C           3.8680   -2.0104    0.0000 C.ar    1  UNL1        0.1423
     15 C           2.9000    1.5517    0.0000 C.ar    1  UNL1       -0.0088
     16 C           3.8841   -3.0519    0.0000 C.ar    1  UNL1        0.0624
     17 C           4.7584    2.6438    0.0000 C.ar    1  UNL1        0.0257
     18 C           2.0920   -2.0173    0.0000 C.ar    1  UNL1       -0.0442
     19 C           2.8833    2.6366    0.0000 C.ar    1  UNL1        0.1620
     20 C           2.9860   -3.5797    0.0000 C.ar    1  UNL1        0.1383
     21 C           3.8187    3.1863    0.0000 C.ar    1  UNL1        0.1650
     22 C           2.0840   -3.0589    0.0000 C.ar    1  UNL1       -0.0179
     23 C           4.6571   -3.7408    0.0000 C.ar    1  UNL1       -0.0126
     24 C           4.2424   -4.6896    0.0000 C.ar    1  UNL1        0.0932
     25 C           2.0000    4.1265    0.0000 C.3     1  UNL1        0.0790
     26 C           4.6790    4.6896    0.0000 C.3     1  UNL1        0.0790
     27 H           3.1286    0.4089    0.0000 H       1  UNL1        0.0468
     28 H           5.4669   -0.9411    0.0000 H       1  UNL1        0.0778
     29 H           5.8486   -0.5889    0.0000 H       1  UNL1        0.0734
     30 H           6.2557    0.0978    0.0000 H       1  UNL1        0.0734
     31 H           2.3692    1.2314    0.0000 H       1  UNL1        0.0659
     32 H           5.2965    2.9517    0.0000 H       1  UNL1        0.0692
     33 H           1.5587   -1.7011    0.0000 H       1  UNL1        0.0627
     34 H           1.5458   -3.3668    0.0000 H       1  UNL1        0.0655
     35 H           5.2628   -3.6083    0.0000 H       1  UNL1        0.0656
     36 H           4.5566   -5.2242    0.0000 H       1  UNL1        0.1030
     37 H           2.6200    4.1336    0.0000 H       1  UNL1        0.0660
     38 H           1.9928    4.7464    0.0000 H       1  UNL1        0.0660
     39 H           1.3800    4.1193    0.0000 H       1  UNL1        0.0660
     40 H           4.9910    4.1539    0.0000 H       1  UNL1        0.0660
     41 H           5.2147    5.0017    0.0000 H       1  UNL1        0.0660
     42 H           4.3669    5.2254    0.0000 H       1  UNL1        0.0660
@<TRIPOS>BOND
     1     1     8    1
     2     1    14    1
     3     2    10    1
     4     2    13    1
     5     3    11    2
     6     4    20   ar
     7     4    24   ar
     8     5    19    1
     9     5    25    1
    10     6    21    1
    11     6    26    1
    12     7     8    1
    13     7     9    1
    14     7    11    1
    15     7    27    1
    16     8    10    1
    17     8    28    1
    18     9    13   ar
    19     9    15   ar
    20    10    29    1
    21    10    30    1
    22    11    12    1
    23    12    14   ar
    24    12    18   ar
    25    13    17   ar
    26    14    16   ar
    27    15    19   ar
    28    15    31    1
    29    16    20   ar
    30    16    23   ar
    31    17    21   ar
    32    17    32    1
    33    18    22   ar
    34    18    33    1
    35    19    21   ar
    36    20    22   ar
    37    22    34    1
    38    23    24   ar
    39    23    35    1
    40    24    36    1
    41    25    37    1
    42    25    38    1
    43    25    39    1
    44    26    40    1
    45    26    41    1
    46    26    42    1
