@<TRIPOS>MOLECULE
IMPHY010818
 46 50 0 0 0
SMALL
GASTEIGER

@<TRIPOS>ATOM
      1 O           2.9894    0.6230    0.0000 O.3     1  UNL1       -0.4560
      2 O           6.8383   -2.5096    0.0000 O.3     1  UNL1       -0.4600
      3 O           7.1702   -1.2134    0.0000 O.2     1  UNL1       -0.2963
      4 O           2.7075   -0.4293    0.0000 O.2     1  UNL1       -0.2502
      5 O           6.1779   -4.0117    0.0000 O.2     1  UNL1       -0.2453
      6 O           2.9136    4.0117    0.0000 O.2     1  UNL1       -0.4706
      7 C           4.5721    0.2866    0.0000 C.3     1  UNL1        0.0785
      8 C           4.5721   -0.7134    0.0000 C.3     1  UNL1       -0.0048
      9 C           5.4381   -1.2134    0.0000 C.3     1  UNL1        0.0979
     10 C           5.4381    0.7866    0.0000 C.3     1  UNL1       -0.0210
     11 C           4.4676    1.2811    0.0000 C.3     1  UNL1        0.0050
     12 C           3.6621   -1.2203    0.0000 C.3     1  UNL1       -0.0444
     13 C           6.3041    0.2866    0.0000 C.3     1  UNL1        0.0104
     14 C           6.3041   -0.7134    0.0000 C.2     1  UNL1        0.1478
     15 C           5.4542   -2.2550    0.0000 C.2     1  UNL1        0.0495
     16 C           6.4536   -1.4157    0.0000 C.3     1  UNL1        0.1096
     17 C           3.6585   -0.1202    0.0000 C.2     1  UNL1        0.3146
     18 C           3.4894    1.4890    0.0000 C.3     1  UNL1        0.1320
     19 C           3.6541   -2.2619    0.0000 C.3     1  UNL1       -0.0336
     20 C           5.4381    1.7866    0.0000 C.3     1  UNL1       -0.0610
     21 C           4.5561   -2.7827    0.0000 C.2     1  UNL1       -0.0730
     22 C           6.1608   -3.0118    0.0000 C.2     1  UNL1        0.3360
     23 C           3.0827    2.4025    0.0000 C.ar    1  UNL1        0.0304
     24 C           2.1045    2.6104    0.0000 C.ar    1  UNL1       -0.0172
     25 C           3.5827    3.2686    0.0000 C.ar    1  UNL1        0.0983
     26 C           2.0000    3.6050    0.0000 C.ar    1  UNL1        0.0921
     27 H           3.8393   -0.2828    0.0000 H       1  UNL1        0.0325
     28 H           5.9751    1.0966    0.0000 H       1  UNL1        0.0313
     29 H           5.0876    1.2811    0.0000 H       1  UNL1        0.0315
     30 H           4.5324    1.8977    0.0000 H       1  UNL1        0.0315
     31 H           3.4575   -0.6350    0.0000 H       1  UNL1        0.0272
     32 H           3.0504   -1.3217    0.0000 H       1  UNL1        0.0272
     33 H           6.9147    0.1789    0.0000 H       1  UNL1        0.0345
     34 H           6.5162    0.8692    0.0000 H       1  UNL1        0.0345
     35 H           7.0657   -1.3170    0.0000 H       1  UNL1        0.0711
     36 H           6.4650   -0.7958    0.0000 H       1  UNL1        0.0711
     37 H           2.8703    1.5214    0.0000 H       1  UNL1        0.0786
     38 H           3.0440   -2.1511    0.0000 H       1  UNL1        0.0308
     39 H           3.4405   -2.8440    0.0000 H       1  UNL1        0.0308
     40 H           6.0581    1.7866    0.0000 H       1  UNL1        0.0233
     41 H           5.4381    2.4066    0.0000 H       1  UNL1        0.0233
     42 H           4.8181    1.7866    0.0000 H       1  UNL1        0.0233
     43 H           4.5585   -3.4027    0.0000 H       1  UNL1        0.0577
     44 H           1.6438    2.1956    0.0000 H       1  UNL1        0.0653
     45 H           4.1993    3.3334    0.0000 H       1  UNL1        0.1033
     46 H           1.4631    3.9150    0.0000 H       1  UNL1        0.1029
@<TRIPOS>BOND
     1     1    17    1
     2     1    18    1
     3     2    16    1
     4     2    22    1
     5     3    14    2
     6     4    17    2
     7     5    22    2
     8     6    25   ar
     9     6    26   ar
    10     7     8    1
    11     7    10    1
    12     7    11    1
    13     7    17    1
    14     8     9    1
    15     8    12    1
    16     8    27    1
    17     9    14    1
    18     9    15    1
    19     9    16    1
    20    10    13    1
    21    10    20    1
    22    10    28    1
    23    11    18    1
    24    11    29    1
    25    11    30    1
    26    12    19    1
    27    12    31    1
    28    12    32    1
    29    13    14    1
    30    13    33    1
    31    13    34    1
    32    15    21    2
    33    15    22    1
    34    16    35    1
    35    16    36    1
    36    18    23    1
    37    18    37    1
    38    19    21    1
    39    19    38    1
    40    19    39    1
    41    20    40    1
    42    20    41    1
    43    20    42    1
    44    21    43    1
    45    23    24   ar
    46    23    25   ar
    47    24    26   ar
    48    24    44    1
    49    25    45    1
    50    26    46    1
