@<TRIPOS>MOLECULE
IMPHY015848
 42 42 0 0 0
SMALL
GASTEIGER

@<TRIPOS>ATOM
      1 O           6.0010   -0.5000    0.0000 O.3     1  UNL1       -0.4609
      2 O           4.2690   -0.5000    0.0000 O.2     1  UNL1       -0.2449
      3 O           2.5369   -2.5000    0.0000 O.3     1  UNL1       -0.4771
      4 O           3.4030   -1.0000    0.0000 O.2     1  UNL1       -0.2451
      5 C           6.8671    1.0000    0.0000 C.3     1  UNL1       -0.0069
      6 C           6.8671    2.0000    0.0000 C.3     1  UNL1       -0.0471
      7 C           7.7331    0.5000    0.0000 C.3     1  UNL1       -0.0500
      8 C           7.7331    2.5000    0.0000 C.3     1  UNL1       -0.0529
      9 C           6.0010    0.5000    0.0000 C.3     1  UNL1        0.0956
     10 C           7.7331    3.5000    0.0000 C.3     1  UNL1       -0.0559
     11 C           8.5991    1.0000    0.0000 C.3     1  UNL1       -0.0649
     12 C           8.5991    4.0000    0.0000 C.3     1  UNL1       -0.0653
     13 C           5.1350   -1.0000    0.0000 C.2     1  UNL1        0.3400
     14 C           5.1350   -2.0000    0.0000 C.ar    1  UNL1        0.0729
     15 C           4.2690   -2.5000    0.0000 C.ar    1  UNL1        0.0728
     16 C           6.0010   -2.5000    0.0000 C.ar    1  UNL1       -0.0470
     17 C           4.2690   -3.5000    0.0000 C.ar    1  UNL1       -0.0470
     18 C           6.0010   -3.5000    0.0000 C.ar    1  UNL1       -0.0609
     19 C           5.1350   -4.0000    0.0000 C.ar    1  UNL1       -0.0609
     20 C           3.4030   -2.0000    0.0000 C.2     1  UNL1        0.3376
     21 H           6.3301    1.3100    0.0000 H       1  UNL1        0.0333
     22 H           6.6550    2.5826    0.0000 H       1  UNL1        0.0269
     23 H           6.2565    1.8923    0.0000 H       1  UNL1        0.0269
     24 H           7.3346    0.0251    0.0000 H       1  UNL1        0.0266
     25 H           8.1316    0.0251    0.0000 H       1  UNL1        0.0266
     26 H           7.9451    1.9174    0.0000 H       1  UNL1        0.0265
     27 H           8.3437    2.6077    0.0000 H       1  UNL1        0.0265
     28 H           5.7890    1.0826    0.0000 H       1  UNL1        0.0700
     29 H           5.3905    0.3923    0.0000 H       1  UNL1        0.0700
     30 H           7.5210    4.0826    0.0000 H       1  UNL1        0.0263
     31 H           7.1225    3.3923    0.0000 H       1  UNL1        0.0263
     32 H           8.9091    0.4631    0.0000 H       1  UNL1        0.0230
     33 H           9.1360    1.3100    0.0000 H       1  UNL1        0.0230
     34 H           8.2891    1.5369    0.0000 H       1  UNL1        0.0230
     35 H           8.9091    3.4631    0.0000 H       1  UNL1        0.0230
     36 H           9.1360    4.3100    0.0000 H       1  UNL1        0.0230
     37 H           8.2891    4.5369    0.0000 H       1  UNL1        0.0230
     38 H           6.5380   -2.1900    0.0000 H       1  UNL1        0.0626
     39 H           3.7320   -3.8100    0.0000 H       1  UNL1        0.0626
     40 H           6.5380   -3.8100    0.0000 H       1  UNL1        0.0618
     41 H           5.1350   -4.6200    0.0000 H       1  UNL1        0.0618
     42 H           2.0000   -2.1900    0.0000 H       1  UNL1        0.2954
@<TRIPOS>BOND
     1     1     9    1
     2     1    13    1
     3     2    13    2
     4     3    20    1
     5     3    42    1
     6     4    20    2
     7     5     6    1
     8     5     7    1
     9     5     9    1
    10     5    21    1
    11     6     8    1
    12     6    22    1
    13     6    23    1
    14     7    11    1
    15     7    24    1
    16     7    25    1
    17     8    10    1
    18     8    26    1
    19     8    27    1
    20     9    28    1
    21     9    29    1
    22    10    12    1
    23    10    30    1
    24    10    31    1
    25    11    32    1
    26    11    33    1
    27    11    34    1
    28    12    35    1
    29    12    36    1
    30    12    37    1
    31    13    14    1
    32    14    15   ar
    33    14    16   ar
    34    15    17   ar
    35    15    20    1
    36    16    18   ar
    37    16    38    1
    38    17    19   ar
    39    17    39    1
    40    18    19   ar
    41    18    40    1
    42    19    41    1
